<configuration>
	<input>
		<net-file value="grid.net.xml"/>
		<route-files value="grid.rou.xml"/>
	</input>
	<time>
		<begin value="0"/>
		<end value="3600"/>
		<step-length value="0.01"/>
	</time>
<remote-port value="50600"/><seed value="4"/><random value="false"/></configuration>