<?xml version="1.0"?>
<!-- generated on 2017-08-18 13:20:47.461558 by $Id: randomTrips.py 23999 2017-04-21 09:04:47Z behrisch $
  options: -n grid.net.xml -o grid.trips.xml -r grid.rou.xml -e 150 -p 0.5
-->
<routes xmlns:xsi="http://www.w3.org/2001/XMLSchema-instance" xsi:noNamespaceSchemaLocation="http://sumo.dlr.de/xsd/routes_file.xsd">
    <trip id="0" depart="0.00" from="4/2to5/2" to="13/5to13/6"/>
    <trip id="1" depart="0.50" from="1/4to2/4" to="23/23to23/24"/>
    <trip id="2" depart="1.00" from="20/4to20/5" to="9/24to10/24"/>
    <trip id="3" depart="1.50" from="16/25to15/25" to="28/21to27/21"/>
    <trip id="4" depart="2.00" from="20/20to21/20" to="28/29to28/30"/>
    <trip id="5" depart="2.50" from="23/8to24/8" to="24/3to23/3"/>
    <trip id="6" depart="3.00" from="9/28to8/28" to="29/4to30/4"/>
    <trip id="7" depart="3.50" from="6/13to7/13" to="13/29to13/28"/>
    <trip id="8" depart="4.00" from="20/22to20/23" to="23/15to24/15"/>
    <trip id="9" depart="4.50" from="1/12to1/11" to="12/9to11/9"/>
    <trip id="10" depart="5.00" from="19/7to19/8" to="20/19to20/20"/>
    <trip id="11" depart="5.50" from="17/29to17/28" to="5/11to5/12"/>
    <trip id="12" depart="6.00" from="12/3to11/3" to="19/1to18/1"/>
    <trip id="13" depart="6.50" from="12/26to13/26" to="15/7to15/6"/>
    <trip id="14" depart="7.00" from="13/27to13/28" to="4/30to3/30"/>
    <trip id="15" depart="7.50" from="30/9to30/10" to="0/26to0/25"/>
    <trip id="16" depart="8.00" from="19/22to20/22" to="25/5to24/5"/>
    <trip id="17" depart="8.50" from="12/30to11/30" to="5/10to5/9"/>
    <trip id="18" depart="9.00" from="22/16to23/16" to="7/21to6/21"/>
    <trip id="19" depart="9.50" from="15/25to15/24" to="20/14to19/14"/>
    <trip id="20" depart="10.00" from="16/26to16/25" to="13/22to13/21"/>
    <trip id="21" depart="10.50" from="13/23to14/23" to="24/5to24/4"/>
    <trip id="22" depart="11.00" from="26/18to27/18" to="20/14to20/15"/>
    <trip id="23" depart="11.50" from="7/27to7/28" to="10/30to11/30"/>
    <trip id="24" depart="12.00" from="4/28to4/27" to="11/25to12/25"/>
    <trip id="25" depart="12.50" from="9/24to8/24" to="24/22to25/22"/>
    <trip id="26" depart="13.00" from="13/16to12/16" to="5/3to4/3"/>
    <trip id="27" depart="13.50" from="28/13to28/14" to="15/8to15/9"/>
    <trip id="28" depart="14.00" from="7/8to7/9" to="19/5to20/5"/>
    <trip id="29" depart="14.50" from="0/28to0/29" to="14/5to14/6"/>
    <trip id="30" depart="15.00" from="26/25to26/26" to="16/19to16/18"/>
    <trip id="31" depart="15.50" from="26/14to26/13" to="13/11to14/11"/>
    <trip id="32" depart="16.00" from="11/7to11/6" to="0/3to0/2"/>
    <trip id="33" depart="16.50" from="15/0to16/0" to="18/17to17/17"/>
    <trip id="34" depart="17.00" from="3/1to2/1" to="19/23to20/23"/>
    <trip id="35" depart="17.50" from="17/3to18/3" to="4/20to4/21"/>
    <trip id="36" depart="18.00" from="9/6to9/7" to="23/6to24/6"/>
    <trip id="37" depart="18.50" from="17/19to16/19" to="26/6to26/7"/>
    <trip id="38" depart="19.00" from="16/3to15/3" to="22/21to22/22"/>
    <trip id="39" depart="19.50" from="10/5to10/4" to="22/27to23/27"/>
    <trip id="40" depart="20.00" from="14/0to14/1" to="14/8to14/7"/>
    <trip id="41" depart="20.50" from="25/19to25/20" to="11/25to11/26"/>
    <trip id="42" depart="21.00" from="11/11to10/11" to="29/21to29/20"/>
    <trip id="43" depart="21.50" from="14/12to15/12" to="27/9to27/10"/>
    <trip id="44" depart="22.00" from="13/13to13/14" to="24/17to25/17"/>
    <trip id="45" depart="22.50" from="20/12to19/12" to="27/4to27/3"/>
    <trip id="46" depart="23.00" from="7/6to8/6" to="21/15to20/15"/>
    <trip id="47" depart="23.50" from="10/19to9/19" to="25/24to26/24"/>
    <trip id="48" depart="24.00" from="30/27to30/26" to="3/21to2/21"/>
    <trip id="49" depart="24.50" from="14/24to14/23" to="15/19to15/18"/>
    <trip id="50" depart="25.00" from="20/18to19/18" to="18/12to18/13"/>
    <trip id="51" depart="25.50" from="15/12to15/11" to="29/28to29/29"/>
    <trip id="52" depart="26.00" from="11/8to11/9" to="12/4to12/3"/>
    <trip id="53" depart="26.50" from="13/24to13/25" to="28/4to28/3"/>
    <trip id="54" depart="27.00" from="6/15to5/15" to="27/10to27/9"/>
    <trip id="55" depart="27.50" from="3/26to3/25" to="18/12to17/12"/>
    <trip id="56" depart="28.00" from="16/24to17/24" to="6/14to6/15"/>
    <trip id="57" depart="28.50" from="1/5to1/4" to="6/26to6/25"/>
    <trip id="58" depart="29.00" from="11/2to10/2" to="20/14to20/15"/>
    <trip id="59" depart="29.50" from="0/18to0/17" to="24/27to24/26"/>
    <trip id="60" depart="30.00" from="8/29to8/30" to="8/29to8/30"/>
    <trip id="61" depart="30.50" from="18/0to17/0" to="17/1to16/1"/>
    <trip id="62" depart="31.00" from="30/12to30/13" to="1/27to2/27"/>
    <trip id="63" depart="31.50" from="7/1to6/1" to="15/9to15/8"/>
    <trip id="64" depart="32.00" from="30/20to29/20" to="1/11to1/10"/>
    <trip id="65" depart="32.50" from="18/6to18/5" to="16/28to15/28"/>
    <trip id="66" depart="33.00" from="21/14to22/14" to="0/28to0/27"/>
    <trip id="67" depart="33.50" from="30/10to30/11" to="9/10to8/10"/>
    <trip id="68" depart="34.00" from="5/22to5/21" to="6/10to6/9"/>
    <trip id="69" depart="34.50" from="29/21to30/21" to="0/10to0/11"/>
    <trip id="70" depart="35.00" from="20/23to19/23" to="18/21to18/20"/>
    <trip id="71" depart="35.50" from="4/27to5/27" to="27/4to27/3"/>
    <trip id="72" depart="36.00" from="3/21to3/22" to="5/29to5/30"/>
    <trip id="73" depart="36.50" from="4/10to5/10" to="19/5to19/6"/>
    <trip id="74" depart="37.00" from="27/20to28/20" to="1/10to1/9"/>
    <trip id="75" depart="37.50" from="20/14to21/14" to="17/5to16/5"/>
    <trip id="76" depart="38.00" from="1/25to1/26" to="20/20to20/21"/>
    <trip id="77" depart="38.50" from="2/19to2/18" to="11/3to11/2"/>
    <trip id="78" depart="39.00" from="20/10to20/9" to="13/26to14/26"/>
    <trip id="79" depart="39.50" from="5/11to5/12" to="30/7to30/8"/>
    <trip id="80" depart="40.00" from="23/15to22/15" to="9/28to9/27"/>
    <trip id="81" depart="40.50" from="5/15to6/15" to="25/0to25/1"/>
    <trip id="82" depart="41.00" from="18/11to18/10" to="11/20to11/21"/>
    <trip id="83" depart="41.50" from="9/24to8/24" to="27/9to27/10"/>
    <trip id="84" depart="42.00" from="6/5to6/6" to="12/17to11/17"/>
    <trip id="85" depart="42.50" from="20/9to21/9" to="3/22to3/21"/>
    <trip id="86" depart="43.00" from="28/8to28/9" to="30/11to30/12"/>
    <trip id="87" depart="43.50" from="19/16to20/16" to="22/23to21/23"/>
    <trip id="88" depart="44.00" from="26/4to26/5" to="12/1to12/2"/>
    <trip id="89" depart="44.50" from="12/10to13/10" to="20/0to20/1"/>
    <trip id="90" depart="45.00" from="4/1to4/0" to="20/23to20/24"/>
    <trip id="91" depart="45.50" from="29/9to29/10" to="19/22to19/23"/>
    <trip id="92" depart="46.00" from="27/22to28/22" to="17/10to18/10"/>
    <trip id="93" depart="46.50" from="0/14to0/15" to="0/13to0/14"/>
    <trip id="94" depart="47.00" from="11/3to11/2" to="16/14to15/14"/>
    <trip id="95" depart="47.50" from="8/4to8/5" to="4/20to4/21"/>
    <trip id="96" depart="48.00" from="13/28to13/27" to="8/25to7/25"/>
    <trip id="97" depart="48.50" from="16/3to15/3" to="21/19to20/19"/>
    <trip id="98" depart="49.00" from="12/30to13/30" to="29/27to29/26"/>
    <trip id="99" depart="49.50" from="14/0to13/0" to="18/13to18/12"/>
    <trip id="100" depart="50.00" from="3/1to4/1" to="5/4to6/4"/>
    <trip id="101" depart="50.50" from="4/21to5/21" to="9/14to8/14"/>
    <trip id="102" depart="51.00" from="11/9to12/9" to="30/3to30/4"/>
    <trip id="103" depart="51.50" from="9/14to9/15" to="7/23to7/22"/>
    <trip id="104" depart="52.00" from="9/5to8/5" to="6/11to7/11"/>
    <trip id="105" depart="52.50" from="27/13to27/12" to="24/2to24/1"/>
    <trip id="106" depart="53.00" from="24/7to25/7" to="4/7to3/7"/>
    <trip id="107" depart="53.50" from="29/16to28/16" to="0/24to0/25"/>
    <trip id="108" depart="54.00" from="4/23to4/24" to="9/1to9/0"/>
    <trip id="109" depart="54.50" from="2/20to2/21" to="27/10to26/10"/>
    <trip id="110" depart="55.00" from="6/26to7/26" to="12/23to11/23"/>
    <trip id="111" depart="55.50" from="25/29to25/30" to="6/27to5/27"/>
    <trip id="112" depart="56.00" from="1/1to1/0" to="24/28to25/28"/>
    <trip id="113" depart="56.50" from="18/10to17/10" to="9/11to9/10"/>
    <trip id="114" depart="57.00" from="8/26to8/25" to="19/28to19/27"/>
    <trip id="115" depart="57.50" from="16/7to16/8" to="12/14to12/15"/>
    <trip id="116" depart="58.00" from="27/2to27/1" to="30/15to30/16"/>
    <trip id="117" depart="58.50" from="11/21to11/22" to="16/26to17/26"/>
    <trip id="118" depart="59.00" from="21/17to22/17" to="3/4to3/3"/>
    <trip id="119" depart="59.50" from="19/17to20/17" to="7/8to7/9"/>
    <trip id="120" depart="60.00" from="1/20to2/20" to="22/4to22/3"/>
    <trip id="121" depart="60.50" from="27/27to28/27" to="28/30to29/30"/>
    <trip id="122" depart="61.00" from="29/13to28/13" to="21/11to20/11"/>
    <trip id="123" depart="61.50" from="4/26to4/27" to="13/25to13/24"/>
    <trip id="124" depart="62.00" from="14/27to14/28" to="1/21to1/22"/>
    <trip id="125" depart="62.50" from="15/8to15/7" to="4/15to4/16"/>
    <trip id="126" depart="63.00" from="13/22to13/23" to="25/12to25/13"/>
    <trip id="127" depart="63.50" from="9/13to10/13" to="8/23to8/22"/>
    <trip id="128" depart="64.00" from="12/11to12/12" to="15/11to15/10"/>
    <trip id="129" depart="64.50" from="24/13to24/12" to="5/20to5/21"/>
    <trip id="130" depart="65.00" from="20/3to20/4" to="19/18to19/17"/>
    <trip id="131" depart="65.50" from="6/5to5/5" to="23/8to23/9"/>
    <trip id="132" depart="66.00" from="22/20to21/20" to="10/3to10/2"/>
    <trip id="133" depart="66.50" from="14/17to15/17" to="26/24to25/24"/>
    <trip id="134" depart="67.00" from="6/18to6/19" to="3/22to3/23"/>
    <trip id="135" depart="67.50" from="24/19to24/18" to="1/19to1/20"/>
    <trip id="136" depart="68.00" from="8/3to9/3" to="1/11to2/11"/>
    <trip id="137" depart="68.50" from="26/7to27/7" to="21/6to20/6"/>
    <trip id="138" depart="69.00" from="27/3to28/3" to="24/16to25/16"/>
    <trip id="139" depart="69.50" from="19/2to18/2" to="4/12to4/11"/>
    <trip id="140" depart="70.00" from="2/23to2/24" to="12/0to12/1"/>
    <trip id="141" depart="70.50" from="5/17to5/16" to="20/1to21/1"/>
    <trip id="142" depart="71.00" from="21/22to21/21" to="0/8to0/9"/>
    <trip id="143" depart="71.50" from="29/2to28/2" to="23/9to22/9"/>
    <trip id="144" depart="72.00" from="26/12to26/13" to="25/15to25/14"/>
    <trip id="145" depart="72.50" from="4/16to4/17" to="20/16to19/16"/>
    <trip id="146" depart="73.00" from="26/17to25/17" to="29/19to28/19"/>
    <trip id="147" depart="73.50" from="23/9to22/9" to="25/23to26/23"/>
    <trip id="148" depart="74.00" from="20/9to20/8" to="2/29to3/29"/>
    <trip id="149" depart="74.50" from="25/19to25/18" to="8/25to8/24"/>
    <trip id="150" depart="75.00" from="21/22to21/21" to="26/24to26/23"/>
    <trip id="151" depart="75.50" from="8/2to7/2" to="19/12to19/11"/>
    <trip id="152" depart="76.00" from="18/7to18/8" to="18/6to19/6"/>
    <trip id="153" depart="76.50" from="19/28to20/28" to="12/25to12/26"/>
    <trip id="154" depart="77.00" from="12/9to12/10" to="10/8to10/9"/>
    <trip id="155" depart="77.50" from="16/11to16/10" to="27/6to26/6"/>
    <trip id="156" depart="78.00" from="27/17to27/18" to="24/21to25/21"/>
    <trip id="157" depart="78.50" from="11/23to11/22" to="2/14to3/14"/>
    <trip id="158" depart="79.00" from="6/22to6/21" to="6/2to6/3"/>
    <trip id="159" depart="79.50" from="18/25to19/25" to="21/8to20/8"/>
    <trip id="160" depart="80.00" from="1/7to1/6" to="18/26to18/25"/>
    <trip id="161" depart="80.50" from="24/16to24/17" to="14/29to15/29"/>
    <trip id="162" depart="81.00" from="12/6to11/6" to="3/22to3/21"/>
    <trip id="163" depart="81.50" from="5/16to5/17" to="28/22to29/22"/>
    <trip id="164" depart="82.00" from="24/26to23/26" to="15/22to15/23"/>
    <trip id="165" depart="82.50" from="9/1to9/2" to="16/22to16/21"/>
    <trip id="166" depart="83.00" from="11/28to10/28" to="29/29to28/29"/>
    <trip id="167" depart="83.50" from="4/5to3/5" to="18/5to18/6"/>
    <trip id="168" depart="84.00" from="22/15to23/15" to="14/0to14/1"/>
    <trip id="169" depart="84.50" from="4/14to4/13" to="28/22to29/22"/>
    <trip id="170" depart="85.00" from="8/11to9/11" to="9/4to9/5"/>
    <trip id="171" depart="85.50" from="4/28to5/28" to="30/11to30/12"/>
    <trip id="172" depart="86.00" from="0/1to1/1" to="12/20to12/21"/>
    <trip id="173" depart="86.50" from="15/20to16/20" to="7/26to8/26"/>
    <trip id="174" depart="87.00" from="7/29to6/29" to="25/21to26/21"/>
    <trip id="175" depart="87.50" from="27/10to26/10" to="11/11to11/10"/>
    <trip id="176" depart="88.00" from="4/15to4/14" to="0/18to0/19"/>
    <trip id="177" depart="88.50" from="22/23to22/24" to="19/15to19/14"/>
    <trip id="178" depart="89.00" from="23/8to23/7" to="18/6to18/7"/>
    <trip id="179" depart="89.50" from="18/19to18/20" to="11/15to11/16"/>
    <trip id="180" depart="90.00" from="26/9to26/10" to="0/11to0/12"/>
    <trip id="181" depart="90.50" from="24/16to24/15" to="7/13to7/12"/>
    <trip id="182" depart="91.00" from="16/8to16/7" to="7/23to8/23"/>
    <trip id="183" depart="91.50" from="1/3to2/3" to="8/2to7/2"/>
    <trip id="184" depart="92.00" from="7/20to8/20" to="6/9to7/9"/>
    <trip id="185" depart="92.50" from="26/27to25/27" to="18/9to18/8"/>
    <trip id="186" depart="93.00" from="5/26to5/25" to="16/8to16/7"/>
    <trip id="187" depart="93.50" from="18/0to17/0" to="29/29to29/28"/>
    <trip id="188" depart="94.00" from="4/5to3/5" to="6/21to6/22"/>
    <trip id="189" depart="94.50" from="2/21to2/20" to="4/11to4/12"/>
    <trip id="190" depart="95.00" from="11/15to11/14" to="20/4to20/3"/>
    <trip id="191" depart="95.50" from="3/10to3/9" to="3/12to3/11"/>
    <trip id="192" depart="96.00" from="16/12to16/13" to="6/12to7/12"/>
    <trip id="193" depart="96.50" from="26/17to27/17" to="15/27to16/27"/>
    <trip id="194" depart="97.00" from="22/12to21/12" to="20/10to20/9"/>
    <trip id="195" depart="97.50" from="14/1to15/1" to="18/7to18/6"/>
    <trip id="196" depart="98.00" from="25/14to25/15" to="2/23to2/22"/>
    <trip id="197" depart="98.50" from="4/18to5/18" to="28/9to29/9"/>
    <trip id="198" depart="99.00" from="10/12to10/13" to="17/26to17/27"/>
    <trip id="199" depart="99.50" from="8/7to9/7" to="13/19to13/18"/>
    <trip id="200" depart="100.00" from="20/1to19/1" to="12/24to11/24"/>
    <trip id="201" depart="100.50" from="16/8to16/9" to="6/23to6/24"/>
    <trip id="202" depart="101.00" from="7/13to8/13" to="24/2to25/2"/>
    <trip id="203" depart="101.50" from="10/24to9/24" to="0/12to0/13"/>
    <trip id="204" depart="102.00" from="16/3to16/4" to="21/8to21/9"/>
    <trip id="205" depart="102.50" from="22/5to23/5" to="1/28to1/29"/>
    <trip id="206" depart="103.00" from="26/19to26/18" to="22/19to21/19"/>
    <trip id="207" depart="103.50" from="20/22to20/21" to="16/19to16/20"/>
    <trip id="208" depart="104.00" from="4/1to4/0" to="19/25to19/24"/>
    <trip id="209" depart="104.50" from="4/8to4/9" to="22/2to22/3"/>
    <trip id="210" depart="105.00" from="11/9to11/8" to="11/6to11/7"/>
    <trip id="211" depart="105.50" from="11/10to11/9" to="4/25to4/24"/>
    <trip id="212" depart="106.00" from="12/6to11/6" to="0/0to1/0"/>
    <trip id="213" depart="106.50" from="16/17to17/17" to="4/17to3/17"/>
    <trip id="214" depart="107.00" from="1/12to2/12" to="0/19to0/20"/>
    <trip id="215" depart="107.50" from="27/25to27/26" to="11/18to11/19"/>
    <trip id="216" depart="108.00" from="1/10to1/11" to="11/22to11/23"/>
    <trip id="217" depart="108.50" from="8/12to8/11" to="7/3to7/2"/>
    <trip id="218" depart="109.00" from="22/30to22/29" to="0/27to1/27"/>
    <trip id="219" depart="109.50" from="20/20to19/20" to="29/6to28/6"/>
    <trip id="220" depart="110.00" from="7/3to6/3" to="17/12to16/12"/>
    <trip id="221" depart="110.50" from="7/16to7/15" to="14/4to14/3"/>
    <trip id="222" depart="111.00" from="28/11to28/10" to="4/24to5/24"/>
    <trip id="223" depart="111.50" from="18/16to18/15" to="30/18to30/17"/>
    <trip id="224" depart="112.00" from="10/11to10/10" to="15/29to15/28"/>
    <trip id="225" depart="112.50" from="18/24to18/23" to="0/18to1/18"/>
    <trip id="226" depart="113.00" from="12/23to11/23" to="4/9to5/9"/>
    <trip id="227" depart="113.50" from="17/30to16/30" to="18/2to19/2"/>
    <trip id="228" depart="114.00" from="24/4to23/4" to="28/4to27/4"/>
    <trip id="229" depart="114.50" from="8/18to9/18" to="19/28to19/27"/>
    <trip id="230" depart="115.00" from="1/15to2/15" to="8/16to8/17"/>
    <trip id="231" depart="115.50" from="5/4to5/3" to="26/0to27/0"/>
    <trip id="232" depart="116.00" from="8/19to9/19" to="0/24to1/24"/>
    <trip id="233" depart="116.50" from="11/25to12/25" to="13/5to13/4"/>
    <trip id="234" depart="117.00" from="19/24to19/23" to="23/4to24/4"/>
    <trip id="235" depart="117.50" from="9/17to10/17" to="10/0to11/0"/>
    <trip id="236" depart="118.00" from="27/28to26/28" to="13/8to13/7"/>
    <trip id="237" depart="118.50" from="24/13to24/12" to="9/24to9/25"/>
    <trip id="238" depart="119.00" from="3/22to2/22" to="4/21to4/20"/>
    <trip id="239" depart="119.50" from="14/27to14/28" to="23/6to23/5"/>
    <trip id="240" depart="120.00" from="21/10to21/9" to="29/27to29/26"/>
    <trip id="241" depart="120.50" from="3/22to3/23" to="18/30to17/30"/>
    <trip id="242" depart="121.00" from="21/24to22/24" to="19/21to20/21"/>
    <trip id="243" depart="121.50" from="5/18to5/17" to="1/7to1/6"/>
    <trip id="244" depart="122.00" from="15/1to16/1" to="25/8to26/8"/>
    <trip id="245" depart="122.50" from="12/10to12/11" to="25/12to25/11"/>
    <trip id="246" depart="123.00" from="18/13to17/13" to="19/6to20/6"/>
    <trip id="247" depart="123.50" from="25/17to24/17" to="17/8to16/8"/>
    <trip id="248" depart="124.00" from="17/18to18/18" to="8/23to7/23"/>
    <trip id="249" depart="124.50" from="5/24to6/24" to="11/11to11/12"/>
    <trip id="250" depart="125.00" from="11/25to10/25" to="24/5to24/6"/>
    <trip id="251" depart="125.50" from="16/14to15/14" to="5/3to6/3"/>
    <trip id="252" depart="126.00" from="30/22to30/23" to="3/13to3/14"/>
    <trip id="253" depart="126.50" from="18/5to18/4" to="17/17to18/17"/>
    <trip id="254" depart="127.00" from="8/23to7/23" to="28/9to27/9"/>
    <trip id="255" depart="127.50" from="5/11to5/12" to="7/1to7/2"/>
    <trip id="256" depart="128.00" from="9/22to10/22" to="29/7to30/7"/>
    <trip id="257" depart="128.50" from="0/16to1/16" to="7/15to7/16"/>
    <trip id="258" depart="129.00" from="18/21to17/21" to="29/27to29/26"/>
    <trip id="259" depart="129.50" from="11/17to11/16" to="18/28to18/27"/>
    <trip id="260" depart="130.00" from="0/17to0/18" to="26/22to26/21"/>
    <trip id="261" depart="130.50" from="2/10to3/10" to="23/5to23/6"/>
    <trip id="262" depart="131.00" from="13/6to13/5" to="23/5to24/5"/>
    <trip id="263" depart="131.50" from="2/24to3/24" to="14/11to14/12"/>
    <trip id="264" depart="132.00" from="9/15to9/16" to="5/23to5/24"/>
    <trip id="265" depart="132.50" from="16/4to16/5" to="11/6to10/6"/>
    <trip id="266" depart="133.00" from="24/18to25/18" to="24/11to25/11"/>
    <trip id="267" depart="133.50" from="22/24to22/25" to="22/23to23/23"/>
    <trip id="268" depart="134.00" from="19/11to19/12" to="1/20to1/21"/>
    <trip id="269" depart="134.50" from="24/2to23/2" to="25/1to26/1"/>
    <trip id="270" depart="135.00" from="3/1to3/0" to="19/30to20/30"/>
    <trip id="271" depart="135.50" from="5/9to6/9" to="17/1to16/1"/>
    <trip id="272" depart="136.00" from="23/14to22/14" to="26/7to26/8"/>
    <trip id="273" depart="136.50" from="14/17to13/17" to="28/30to28/29"/>
    <trip id="274" depart="137.00" from="20/27to20/26" to="9/13to10/13"/>
    <trip id="275" depart="137.50" from="10/20to11/20" to="0/13to1/13"/>
    <trip id="276" depart="138.00" from="29/21to28/21" to="19/2to18/2"/>
    <trip id="277" depart="138.50" from="13/1to13/2" to="16/30to15/30"/>
    <trip id="278" depart="139.00" from="16/1to15/1" to="24/14to24/15"/>
    <trip id="279" depart="139.50" from="22/15to21/15" to="1/13to0/13"/>
    <trip id="280" depart="140.00" from="5/14to6/14" to="24/12to24/13"/>
    <trip id="281" depart="140.50" from="6/30to5/30" to="23/16to24/16"/>
    <trip id="282" depart="141.00" from="26/25to27/25" to="11/0to10/0"/>
    <trip id="283" depart="141.50" from="6/2to5/2" to="14/17to15/17"/>
    <trip id="284" depart="142.00" from="7/8to7/9" to="21/5to21/4"/>
    <trip id="285" depart="142.50" from="18/15to18/16" to="7/25to6/25"/>
    <trip id="286" depart="143.00" from="18/15to18/16" to="24/22to23/22"/>
    <trip id="287" depart="143.50" from="30/16to30/15" to="16/27to16/28"/>
    <trip id="288" depart="144.00" from="13/22to13/23" to="29/20to29/21"/>
    <trip id="289" depart="144.50" from="15/2to14/2" to="6/1to5/1"/>
    <trip id="290" depart="145.00" from="16/21to16/22" to="8/16to7/16"/>
    <trip id="291" depart="145.50" from="7/26to7/25" to="17/8to16/8"/>
    <trip id="292" depart="146.00" from="24/26to25/26" to="17/25to17/26"/>
    <trip id="293" depart="146.50" from="13/20to12/20" to="22/13to21/13"/>
    <trip id="294" depart="147.00" from="17/9to17/10" to="5/28to6/28"/>
    <trip id="295" depart="147.50" from="1/29to1/28" to="27/11to27/12"/>
    <trip id="296" depart="148.00" from="4/24to4/23" to="29/1to30/1"/>
    <trip id="297" depart="148.50" from="20/19to19/19" to="27/0to28/0"/>
    <trip id="298" depart="149.00" from="21/10to21/11" to="24/23to24/22"/>
    <trip id="299" depart="149.50" from="21/3to21/2" to="13/19to12/19"/>
</routes>
