<?xml version="1.0" encoding="UTF-8"?>

<!-- generated on 06/18/17 19:26:22 by SUMO polyconvert Version 0.29.0
<?xml version="1.0" encoding="UTF-8"?>

<configuration xmlns:xsi="http://www.w3.org/2001/XMLSchema-instance" xsi:noNamespaceSchemaLocation="http://sumo.dlr.de/xsd/polyconvertConfiguration.xsd">

    <input>
        <net-file value="C:/Users/Jacob/src/sumo-0.29.0/tools/2017-06-18-19-26-16/osm.net.xml"/>
        <osm-files value="osm_bbox.osm.xml"/>
        <osm.keep-full-type value="true"/>
        <type-file value="C:\Users\Jacob\src\sumo-0.29.0\data/typemap/osmPolyconvert.typ.xml"/>
    </input>

    <output>
        <output-file value="C:/Users/Jacob/src/sumo-0.29.0/tools/2017-06-18-19-26-16/osm.poly.xml"/>
    </output>

    <processing>
        <poi-layer-offset value="5"/>
    </processing>

    <report>
        <verbose value="true"/>
    </report>

</configuration>
-->

<additional xmlns:xsi="http://www.w3.org/2001/XMLSchema-instance" xsi:noNamespaceSchemaLocation="http://sumo.dlr.de/xsd/additional_file.xsd">
    <location netOffset="-483895.46,-4417353.44" convBoundary="0.00,0.00,4028.40,12598.76" origBoundary="-75.188544,39.906133,-75.141375,40.019681" projParameter="+proj=utm +zone=18 +ellps=WGS84 +datum=WGS84 +units=m +no_defs"/>

    <poly id="107736476" type="amenity.parking" color="184,184,179" fill="1" layer="-1.00" shape="2882.64,4912.54 2887.54,4940.77 2854.33,4946.49 2856.68,4959.67 2856.46,4960.28 2855.74,4960.74 2851.14,4961.19 2852.01,4966.88 2853.40,4976.11 2854.49,4983.32 2860.80,4982.64 2862.44,4994.80 2965.30,4978.86 2962.99,4963.00 2963.35,4962.28 2964.09,4962.08 2971.85,4960.87 2970.59,4953.68 2965.58,4925.15 2958.81,4926.27 2957.69,4926.23 2957.00,4925.73 2956.51,4924.77 2954.87,4914.04 2914.56,4920.09 2912.66,4907.56 2909.58,4907.91 2882.64,4912.54"/>
    <poly id="135069549" type="amenity.parking" color="184,184,179" fill="1" layer="-1.00" shape="2906.98,4893.03 2958.95,4884.38 2950.57,4834.44 2898.61,4843.09 2906.98,4893.03"/>
    <poly id="179815699" type="building.retail" color="255,230,230" fill="1" layer="-1.00" shape="1663.06,5759.57 1659.87,5740.96 1655.75,5741.64 1655.40,5738.45 1645.78,5739.95 1648.09,5750.21 1656.92,5753.56 1658.39,5760.18 1663.06,5759.57"/>
    <poly id="179820448" type="amenity.swimming_pool" color="237,199,199" fill="1" layer="-1.00" shape="1658.12,5764.81 1658.79,5769.52 1658.19,5770.32 1657.45,5770.64 1654.47,5771.05 1653.05,5770.41 1650.68,5768.18 1651.99,5765.12 1651.81,5762.67 1655.79,5761.93 1656.72,5764.84 1658.12,5764.81"/>
    <poly id="179820448#1" type="sport.swimming" color="79,230,125" fill="1" layer="-2.00" shape="1658.12,5764.81 1658.79,5769.52 1658.19,5770.32 1657.45,5770.64 1654.47,5771.05 1653.05,5770.41 1650.68,5768.18 1651.99,5765.12 1651.81,5762.67 1655.79,5761.93 1656.72,5764.84 1658.12,5764.81"/>
    <poly id="179820450" type="leisure.playground" color="207,245,201" fill="1" layer="-2.00" shape="1668.57,5795.36 1663.05,5761.30 1644.27,5764.42 1645.27,5770.12 1645.72,5775.81 1645.67,5781.15 1645.46,5786.52 1644.62,5791.07 1651.04,5793.62 1656.82,5795.02 1662.92,5795.81 1668.57,5795.36"/>
    <poly id="183374061" type="building.yes" color="255,230,230" fill="1" layer="-1.00" shape="1654.29,5583.55 1649.45,5578.77 1646.86,5572.62 1646.93,5565.34 1649.24,5559.83 1653.71,5555.12 1659.64,5552.39 1665.97,5551.32 1692.43,5546.95 1704.70,5544.92 1708.45,5551.24 1684.14,5573.40 1677.82,5579.33 1673.28,5583.62 1666.93,5586.12 1660.20,5586.02 1654.29,5583.55"/>
    <poly id="183374061#1" type="tourism.hotel" color="207,245,201" fill="1" layer="-2.00" shape="1654.29,5583.55 1649.45,5578.77 1646.86,5572.62 1646.93,5565.34 1649.24,5559.83 1653.71,5555.12 1659.64,5552.39 1665.97,5551.32 1692.43,5546.95 1704.70,5544.92 1708.45,5551.24 1684.14,5573.40 1677.82,5579.33 1673.28,5583.62 1666.93,5586.12 1660.20,5586.02 1654.29,5583.55"/>
    <poly id="183374062" type="building.commercial" color="255,230,230" fill="1" layer="-1.00" shape="1718.73,5442.36 1731.69,5440.22 1749.13,5437.37 1751.53,5451.94 1754.52,5470.08 1730.35,5474.03 1724.14,5475.07 1718.73,5442.36"/>
    <poly id="183374064" type="building.yes" color="255,230,230" fill="1" layer="-1.00" shape="1725.91,5523.75 1725.31,5521.37 1720.30,5522.12 1715.64,5498.77 1711.56,5477.45 1724.14,5475.07 1730.35,5474.03 1754.52,5470.08 1757.91,5491.79 1755.86,5503.28 1751.44,5511.55 1745.53,5518.04 1737.25,5521.30 1730.13,5523.21 1725.91,5523.75"/>
    <poly id="183374064#1" type="tourism.hotel" color="207,245,201" fill="1" layer="-2.00" shape="1725.91,5523.75 1725.31,5521.37 1720.30,5522.12 1715.64,5498.77 1711.56,5477.45 1724.14,5475.07 1730.35,5474.03 1754.52,5470.08 1757.91,5491.79 1755.86,5503.28 1751.44,5511.55 1745.53,5518.04 1737.25,5521.30 1730.13,5523.21 1725.91,5523.75"/>
    <poly id="190091621" type="building.commercial" color="255,230,230" fill="1" layer="-1.00" shape="1652.44,4910.40 1646.00,4872.33 1654.29,4870.94 1660.72,4909.01 1652.44,4910.40"/>
    <poly id="198653091" type="building.yes" color="255,230,230" fill="1" layer="-1.00" shape="2203.42,4814.84 2226.78,4811.09 2233.56,4810.06 2231.49,4796.37 2230.20,4788.19 2228.70,4778.82 2198.29,4783.56 2199.68,4792.96 2203.42,4814.84"/>
    <poly id="198653091#1" type="tourism.hotel" color="207,245,201" fill="1" layer="-2.00" shape="2203.42,4814.84 2226.78,4811.09 2233.56,4810.06 2231.49,4796.37 2230.20,4788.19 2228.70,4778.82 2198.29,4783.56 2199.68,4792.96 2203.42,4814.84"/>
    <poly id="198674659" type="building.yes" color="255,230,230" fill="1" layer="-1.00" shape="2304.75,5089.86 2225.72,5103.47 2200.32,4955.42 2279.96,4941.80 2304.75,5089.86"/>
    <poly id="198674659#1" type="shop.department_store" color="237,199,255" fill="1" layer="-1.00" shape="2304.75,5089.86 2225.72,5103.47 2200.32,4955.42 2279.96,4941.80 2304.75,5089.86"/>
    <poly id="203195261" type="building.apartments" color="255,230,230" fill="1" layer="-1.00" shape="1480.59,5398.99 1475.85,5369.49 1597.40,5350.09 1602.15,5379.57 1480.59,5398.99"/>
    <poly id="203586434" type="building.apartments" color="255,230,230" fill="1" layer="-1.00" shape="1465.11,5395.02 1461.72,5376.26 1426.83,5381.75 1426.48,5379.49 1378.92,5386.98 1379.27,5389.21 1344.01,5394.79 1347.18,5412.99 1381.91,5407.32 1382.15,5408.74 1393.20,5406.94 1393.43,5408.34 1417.26,5404.46 1417.00,5402.87 1465.11,5395.02"/>
    <poly id="203587180" type="building.residential" color="255,230,230" fill="1" layer="-1.00" shape="1335.11,5694.24 1320.45,5608.83 1350.40,5603.73 1365.06,5689.15 1335.11,5694.24"/>
    <poly id="205238783" type="building.school" color="255,230,230" fill="1" layer="-1.00" shape="895.64,5143.02 968.86,5131.83 966.31,5115.33 970.97,5114.63 969.68,5106.29 965.51,5106.92 966.12,5110.91 963.37,5111.32 962.20,5103.69 892.16,5114.38 893.54,5123.39 890.40,5123.86 889.78,5119.87 886.27,5120.41 887.40,5127.78 893.16,5126.90 895.64,5143.02"/>
    <poly id="205238786" type="building.yes" color="255,230,230" fill="1" layer="-1.00" shape="953.06,5198.46 946.99,5163.32 935.77,5164.97 942.32,5200.85 953.06,5198.46"/>
    <poly id="205238788" type="building.yes" color="255,230,230" fill="1" layer="-1.00" shape="962.38,5192.57 957.04,5161.60 946.99,5163.32 953.06,5198.46 953.45,5200.81 963.49,5199.15 962.38,5192.57"/>
    <poly id="205238789" type="building.yes" color="255,230,230" fill="1" layer="-1.00" shape="980.51,5157.63 957.04,5161.60 962.38,5192.57 985.83,5188.44 980.51,5157.63"/>
    <poly id="229124699" type="building.yes" color="255,230,230" fill="1" layer="-1.00" shape="2688.38,5216.52 2691.75,5235.16 2687.75,5235.87 2692.49,5262.05 2724.33,5256.02 2719.27,5229.90 2715.20,5230.63 2711.88,5212.30 2688.38,5216.52"/>
    <poly id="239873159" type="leisure.park" color="207,245,201" fill="1" layer="-2.00" shape="1817.06,5511.68 1837.24,5508.42 1833.98,5488.37 1814.31,5506.67 1817.06,5511.68"/>
    <poly id="239873160" type="leisure.park" color="207,245,201" fill="1" layer="-2.00" shape="1858.54,5504.76 1897.59,5497.95 1893.30,5470.70 1882.32,5481.22 1872.46,5477.36 1858.54,5504.76"/>
    <poly id="239873161" type="amenity.cafe" color="237,199,199" fill="1" layer="-1.00" shape="1881.07,5479.55 1891.66,5469.56 1884.70,5462.24 1874.11,5472.23 1881.07,5479.55"/>
    <poly id="239873161#1" type="building.yes" color="255,230,230" fill="1" layer="-1.00" shape="1881.07,5479.55 1891.66,5469.56 1884.70,5462.24 1874.11,5472.23 1881.07,5479.55"/>
    <poly id="239873173" type="leisure.park" color="207,245,201" fill="1" layer="-2.00" shape="1846.81,5506.83 1842.45,5480.38 1866.36,5456.77 1870.28,5460.70 1865.18,5465.74 1870.38,5470.97 1853.72,5505.69 1846.81,5506.83"/>
    <poly id="239873185" type="building.hut" color="255,230,230" fill="1" layer="-1.00" shape="1870.84,5469.44 1867.00,5465.50 1870.37,5462.24 1874.21,5466.18 1870.84,5469.44"/>
    <poly id="239873210" type="leisure.park" color="207,245,201" fill="1" layer="-2.00" shape="1832.17,5422.04 1790.29,5429.53 1796.66,5466.75 1833.55,5430.77 1832.17,5422.04"/>
    <poly id="250397019" type="leisure.playground" color="207,245,201" fill="1" layer="-2.00" shape="1109.52,5630.04 1119.42,5628.53 1117.35,5615.07 1115.66,5604.98 1114.25,5596.57 1104.21,5598.24 1109.52,5630.04"/>
    <poly id="250867565" type="amenity.parking" color="184,184,179" fill="1" layer="-1.00" shape="962.58,5653.25 875.54,5665.76 866.30,5621.50 845.54,5549.89 824.79,5486.95 930.06,5469.24 962.58,5653.25"/>
    <poly id="250867800" type="building.yes" color="255,230,230" fill="1" layer="-1.00" shape="978.40,5418.68 974.92,5397.03 1016.44,5390.40 1019.73,5411.91 978.40,5418.68"/>
    <poly id="250867811" type="amenity.parking" color="184,184,179" fill="1" layer="-1.00" shape="978.40,5418.68 979.19,5423.59 939.75,5429.89 930.68,5376.67 1012.04,5363.49 1016.44,5390.40 974.92,5397.03 978.40,5418.68"/>
    <poly id="250868079" type="amenity.parking" color="184,184,179" fill="1" layer="-1.00" shape="958.78,5543.59 950.26,5494.42 992.60,5487.21 1000.84,5536.62 958.78,5543.59"/>
    <poly id="250868079#1" type="building.yes" color="255,230,230" fill="1" layer="-1.00" shape="958.78,5543.59 950.26,5494.42 992.60,5487.21 1000.84,5536.62 958.78,5543.59"/>
    <poly id="250868355" type="building.residential" color="255,230,230" fill="1" layer="-1.00" shape="1000.84,5536.62 1040.97,5529.98 1032.73,5480.57 992.60,5487.21 1000.84,5536.62"/>
    <poly id="250868438" type="amenity.school" color="237,199,199" fill="1" layer="-1.00" shape="1059.91,5526.95 1054.59,5495.17 1088.42,5489.67 1093.73,5521.18 1059.91,5526.95"/>
    <poly id="250868438#1" type="building.yes" color="255,230,230" fill="1" layer="-1.00" shape="1059.91,5526.95 1054.59,5495.17 1088.42,5489.67 1093.73,5521.18 1059.91,5526.95"/>
    <poly id="252221796" type="amenity.place_of_worship" color="237,199,199" fill="1" layer="-1.00" shape="1816.97,5735.96 1819.47,5751.13 1848.65,5746.33 1846.84,5735.39 1844.24,5735.82 1843.54,5731.58 1816.97,5735.96"/>
    <poly id="252221796#1" type="building.church" color="255,230,230" fill="1" layer="-1.00" shape="1816.97,5735.96 1819.47,5751.13 1848.65,5746.33 1846.84,5735.39 1844.24,5735.82 1843.54,5731.58 1816.97,5735.96"/>
    <poly id="252221797" type="building.school" color="255,230,230" fill="1" layer="-1.00" shape="1787.28,5565.22 1795.94,5617.37 1836.76,5610.72 1880.21,5603.66 1871.31,5551.02 1787.28,5565.22"/>
    <poly id="252221798" type="building.commercial" color="255,230,230" fill="1" layer="-1.00" shape="1892.70,5618.11 1893.71,5624.06 1887.56,5625.10 1889.07,5633.94 1884.64,5634.71 1894.51,5692.77 1919.45,5688.53 1918.46,5682.72 1924.59,5681.68 1923.08,5672.79 1927.45,5672.05 1917.54,5613.88 1892.70,5618.11"/>
    <poly id="252221799" type="building.yes" color="255,230,230" fill="1" layer="-1.00" shape="1700.45,5769.33 1719.92,5765.99 1721.14,5765.78 1721.28,5766.60 1724.43,5766.06 1722.39,5754.15 1700.12,5757.97 1699.87,5756.52 1685.59,5758.97 1685.76,5759.95 1683.73,5760.30 1682.96,5760.44 1686.31,5779.92 1694.78,5778.47 1693.63,5771.78 1696.39,5771.31 1696.18,5770.06 1700.45,5769.33"/>
    <poly id="252221800" type="building.university" color="255,230,230" fill="1" layer="-1.00" shape="1815.67,5559.28 1835.06,5556.12 1871.63,5550.16 1888.97,5547.33 1887.51,5538.44 1886.34,5531.23 1884.72,5521.32 1878.57,5522.32 1877.59,5516.34 1834.04,5523.45 1810.10,5527.35 1811.04,5533.10 1805.34,5534.03 1806.46,5540.91 1799.95,5541.98 1802.84,5559.69 1803.11,5561.34 1815.67,5559.28"/>
    <poly id="252221801" type="building.yes" color="255,230,230" fill="1" layer="-1.00" shape="1733.12,5629.60 1750.65,5626.69 1750.41,5625.24 1748.14,5610.76 1746.06,5598.98 1744.71,5588.85 1743.14,5577.04 1730.41,5590.01 1730.99,5592.97 1727.21,5593.67 1733.12,5629.60"/>
    <poly id="252221802" type="amenity.parking" color="184,184,179" fill="1" layer="-1.00" shape="1993.89,5722.72 2026.53,5717.32 2025.93,5713.68 2024.96,5707.84 2027.78,5707.38 2026.74,5701.07 2024.04,5701.51 2016.11,5653.46 1977.10,5659.93 1978.36,5668.56 1984.60,5667.66 1989.25,5694.95 1992.76,5715.94 1993.89,5722.72"/>
    <poly id="252221802#1" type="building.yes" color="255,230,230" fill="1" layer="-1.00" shape="1993.89,5722.72 2026.53,5717.32 2025.93,5713.68 2024.96,5707.84 2027.78,5707.38 2026.74,5701.07 2024.04,5701.51 2016.11,5653.46 1977.10,5659.93 1978.36,5668.56 1984.60,5667.66 1989.25,5694.95 1992.76,5715.94 1993.89,5722.72"/>
    <poly id="252221804" type="building.yes" color="255,230,230" fill="1" layer="-1.00" shape="1810.06,5632.76 1810.89,5637.75 1799.15,5639.76 1812.42,5716.86 1847.46,5710.99 1848.91,5723.35 1886.23,5717.09 1880.69,5679.43 1881.29,5679.29 1881.96,5678.97 1882.98,5678.26 1883.66,5677.69 1884.15,5677.23 1884.65,5676.52 1885.25,5675.57 1885.27,5674.57 1885.07,5673.37 1884.11,5667.52 1877.91,5630.71 1876.51,5621.72 1821.00,5630.99 1810.06,5632.76"/>
    <poly id="252221804#1" type="tourism.hotel" color="207,245,201" fill="1" layer="-2.00" shape="1810.06,5632.76 1810.89,5637.75 1799.15,5639.76 1812.42,5716.86 1847.46,5710.99 1848.91,5723.35 1886.23,5717.09 1880.69,5679.43 1881.29,5679.29 1881.96,5678.97 1882.98,5678.26 1883.66,5677.69 1884.15,5677.23 1884.65,5676.52 1885.25,5675.57 1885.27,5674.57 1885.07,5673.37 1884.11,5667.52 1877.91,5630.71 1876.51,5621.72 1821.00,5630.99 1810.06,5632.76"/>
    <poly id="252221805" type="building.yes" color="255,230,230" fill="1" layer="-1.00" shape="1563.68,5567.35 1513.29,5575.53 1518.26,5609.44 1526.45,5657.89 1526.79,5660.07 1587.17,5649.96 1608.55,5646.39 1626.02,5629.28 1623.53,5613.83 1633.69,5612.35 1632.69,5606.47 1631.33,5595.43 1620.86,5597.26 1620.02,5590.93 1618.04,5591.23 1616.91,5584.56 1603.34,5586.82 1598.32,5591.70 1599.59,5599.29 1601.66,5611.70 1581.13,5615.13 1581.82,5619.22 1563.29,5622.33 1562.62,5618.40 1555.17,5619.65 1550.52,5620.42 1546.42,5595.87 1580.59,5590.16 1605.89,5566.13 1608.16,5564.01 1605.09,5560.74 1588.76,5563.34 1563.68,5567.35"/>
    <poly id="252221805#1" type="tourism.hotel" color="207,245,201" fill="1" layer="-2.00" shape="1563.68,5567.35 1513.29,5575.53 1518.26,5609.44 1526.45,5657.89 1526.79,5660.07 1587.17,5649.96 1608.55,5646.39 1626.02,5629.28 1623.53,5613.83 1633.69,5612.35 1632.69,5606.47 1631.33,5595.43 1620.86,5597.26 1620.02,5590.93 1618.04,5591.23 1616.91,5584.56 1603.34,5586.82 1598.32,5591.70 1599.59,5599.29 1601.66,5611.70 1581.13,5615.13 1581.82,5619.22 1563.29,5622.33 1562.62,5618.40 1555.17,5619.65 1550.52,5620.42 1546.42,5595.87 1580.59,5590.16 1605.89,5566.13 1608.16,5564.01 1605.09,5560.74 1588.76,5563.34 1563.68,5567.35"/>
    <poly id="252221806" type="amenity.social_facility" color="237,199,199" fill="1" layer="-1.00" shape="1771.63,5578.84 1746.37,5582.91 1748.62,5596.80 1773.87,5592.73 1771.63,5578.84"/>
    <poly id="252221806#1" type="building.yes" color="255,230,230" fill="1" layer="-1.00" shape="1771.63,5578.84 1746.37,5582.91 1748.62,5596.80 1773.87,5592.73 1771.63,5578.84"/>
    <poly id="252221807" type="building.commercial" color="255,230,230" fill="1" layer="-1.00" shape="1835.71,5751.14 1839.20,5765.73 1844.01,5764.49 1844.89,5767.29 1853.41,5767.72 1857.42,5767.91 1861.35,5768.16 1865.03,5768.08 1868.09,5767.90 1872.04,5767.65 1878.33,5766.93 1884.76,5766.09 1887.91,5765.62 1891.69,5764.73 1894.80,5764.08 1898.53,5763.17 1901.92,5762.26 1904.88,5761.02 1908.13,5759.69 1911.34,5758.53 1914.40,5756.97 1918.34,5755.21 1921.45,5753.71 1924.07,5752.58 1926.87,5750.87 1929.91,5749.01 1928.00,5749.27 1927.71,5746.90 1938.09,5744.68 1935.46,5729.64 1933.11,5730.15 1931.66,5723.36 1930.46,5717.76 1876.38,5729.31 1850.38,5734.86 1852.88,5747.93 1835.71,5751.14"/>
    <poly id="252221808" type="building.university" color="255,230,230" fill="1" layer="-1.00" shape="2043.35,5593.16 2041.16,5593.49 2015.70,5597.41 2021.41,5634.11 2036.85,5631.73 2049.05,5629.85 2046.30,5612.16 2043.35,5593.16"/>
    <poly id="252221809" type="building.hospital" color="255,230,230" fill="1" layer="-1.00" shape="1938.93,5609.91 1944.76,5646.86 2015.92,5635.71 2010.08,5598.76 1938.93,5609.91"/>
    <poly id="252221810" type="building.yes" color="255,230,230" fill="1" layer="-1.00" shape="1765.07,5717.21 1766.26,5724.40 1766.28,5724.51 1766.89,5728.23 1794.26,5723.71 1788.52,5688.92 1761.14,5693.44 1765.07,5717.21"/>
    <poly id="252221811" type="amenity.place_of_worship" color="237,199,199" fill="1" layer="-1.00" shape="1694.47,5731.75 1742.84,5723.25 1740.50,5709.88 1738.15,5697.46 1741.07,5697.13 1742.41,5696.68 1743.67,5696.06 1744.82,5695.25 1745.85,5694.27 1746.72,5693.16 1747.41,5691.92 1747.69,5690.56 1747.73,5688.87 1747.47,5686.81 1746.93,5685.23 1746.35,5683.97 1745.40,5682.49 1743.86,5681.29 1742.17,5680.28 1747.19,5674.59 1745.49,5664.79 1741.92,5665.41 1740.65,5658.76 1735.80,5659.65 1733.31,5645.90 1706.33,5650.74 1708.81,5664.48 1709.92,5664.28 1711.30,5672.22 1703.55,5673.50 1688.79,5676.17 1688.51,5675.21 1688.01,5674.32 1687.33,5673.57 1686.50,5672.98 1685.56,5672.61 1684.56,5672.44 1683.55,5672.50 1682.58,5672.79 1681.70,5673.28 1680.94,5673.96 1680.36,5674.79 1679.98,5675.72 1679.81,5676.73 1679.87,5677.74 1676.93,5678.26 1676.75,5677.21 1673.64,5677.76 1672.93,5678.21 1672.31,5678.78 1671.79,5679.45 1671.40,5680.19 1671.14,5680.99 1671.01,5681.82 1671.02,5682.53 1671.03,5682.67 1671.18,5683.50 1672.33,5689.17 1669.31,5689.65 1669.61,5691.53 1672.50,5708.76 1672.89,5711.21 1675.97,5710.72 1676.75,5715.20 1677.23,5716.21 1677.89,5717.08 1678.72,5717.84 1679.67,5718.40 1680.72,5718.77 1681.81,5718.92 1682.92,5718.86 1684.00,5718.59 1683.85,5717.77 1691.77,5716.39 1694.47,5731.75"/>
    <poly id="252221811#1" type="building.cathedral" color="255,230,230" fill="1" layer="-1.00" shape="1694.47,5731.75 1742.84,5723.25 1740.50,5709.88 1738.15,5697.46 1741.07,5697.13 1742.41,5696.68 1743.67,5696.06 1744.82,5695.25 1745.85,5694.27 1746.72,5693.16 1747.41,5691.92 1747.69,5690.56 1747.73,5688.87 1747.47,5686.81 1746.93,5685.23 1746.35,5683.97 1745.40,5682.49 1743.86,5681.29 1742.17,5680.28 1747.19,5674.59 1745.49,5664.79 1741.92,5665.41 1740.65,5658.76 1735.80,5659.65 1733.31,5645.90 1706.33,5650.74 1708.81,5664.48 1709.92,5664.28 1711.30,5672.22 1703.55,5673.50 1688.79,5676.17 1688.51,5675.21 1688.01,5674.32 1687.33,5673.57 1686.50,5672.98 1685.56,5672.61 1684.56,5672.44 1683.55,5672.50 1682.58,5672.79 1681.70,5673.28 1680.94,5673.96 1680.36,5674.79 1679.98,5675.72 1679.81,5676.73 1679.87,5677.74 1676.93,5678.26 1676.75,5677.21 1673.64,5677.76 1672.93,5678.21 1672.31,5678.78 1671.79,5679.45 1671.40,5680.19 1671.14,5680.99 1671.01,5681.82 1671.02,5682.53 1671.03,5682.67 1671.18,5683.50 1672.33,5689.17 1669.31,5689.65 1669.61,5691.53 1672.50,5708.76 1672.89,5711.21 1675.97,5710.72 1676.75,5715.20 1677.23,5716.21 1677.89,5717.08 1678.72,5717.84 1679.67,5718.40 1680.72,5718.77 1681.81,5718.92 1682.92,5718.86 1684.00,5718.59 1683.85,5717.77 1691.77,5716.39 1694.47,5731.75"/>
    <poly id="252221812" type="building.yes" color="255,230,230" fill="1" layer="-1.00" shape="1766.41,5640.24 1745.62,5643.72 1750.38,5672.12 1761.79,5670.21 1760.34,5661.54 1758.82,5661.80 1757.20,5652.09 1768.07,5650.26 1766.41,5640.24"/>
    <poly id="252387402" type="building.yes" color="255,230,230" fill="1" layer="-1.00" shape="1397.03,5472.78 1389.31,5427.04 1362.13,5431.59 1369.31,5476.95 1397.03,5472.78"/>
    <poly id="252387403" type="building.apartments" color="255,230,230" fill="1" layer="-1.00" shape="1518.39,5517.05 1520.30,5516.74 1521.22,5522.34 1530.13,5520.88 1529.21,5515.30 1530.19,5515.14 1533.03,5514.68 1534.04,5520.88 1539.42,5520.01 1531.72,5471.73 1526.02,5472.62 1496.03,5477.54 1502.97,5519.55 1504.93,5519.23 1509.78,5518.44 1518.39,5517.05"/>
    <poly id="252387404" type="building.yes" color="255,230,230" fill="1" layer="-1.00" shape="1414.46,5491.73 1424.53,5554.33 1441.25,5551.83 1440.68,5548.09 1431.73,5488.83 1414.46,5491.73"/>
    <poly id="252387406" type="building.commercial" color="255,230,230" fill="1" layer="-1.00" shape="1840.15,5335.59 1841.51,5344.23 1845.64,5343.58 1845.92,5345.37 1866.25,5342.17 1865.95,5340.36 1870.34,5339.67 1865.31,5307.91 1864.52,5308.03 1842.08,5311.58 1820.30,5315.30 1801.32,5318.30 1791.65,5319.82 1769.40,5323.48 1752.43,5326.16 1752.66,5327.58 1747.75,5328.35 1752.53,5358.42 1780.94,5353.94 1779.62,5345.64 1794.92,5343.23 1796.66,5351.08 1796.28,5351.78 1825.86,5347.12 1824.43,5338.07 1840.15,5335.59"/>
    <poly id="252387407" type="building.yes" color="255,230,230" fill="1" layer="-1.00" shape="1319.52,5667.47 1310.18,5669.07 1313.37,5687.77 1311.19,5688.14 1308.57,5672.81 1304.91,5673.44 1304.33,5670.04 1299.60,5670.85 1302.78,5689.47 1300.36,5689.87 1298.62,5679.70 1290.21,5681.13 1291.39,5687.99 1288.83,5688.43 1287.78,5682.30 1277.95,5683.98 1281.23,5703.16 1324.35,5695.80 1319.52,5667.47"/>
    <poly id="252387408" type="building.terrace" color="255,230,230" fill="1" layer="-1.00" shape="1318.74,5662.90 1319.05,5662.85 1310.16,5608.25 1289.68,5611.59 1291.03,5619.91 1300.13,5618.43 1300.76,5622.24 1296.89,5622.87 1297.58,5627.12 1296.06,5627.37 1296.73,5631.44 1304.92,5630.11 1305.30,5632.46 1297.15,5633.78 1298.45,5641.79 1306.07,5640.56 1306.66,5644.16 1299.20,5645.38 1300.52,5653.49 1308.17,5652.24 1308.63,5655.09 1298.83,5656.69 1300.10,5664.53 1310.03,5662.92 1310.25,5664.28 1318.74,5662.90"/>
    <poly id="252387409" type="building.terrace" color="255,230,230" fill="1" layer="-1.00" shape="1383.58,5570.37 1383.30,5569.24 1398.60,5566.52 1397.20,5558.75 1382.30,5561.41 1381.76,5558.40 1393.30,5556.34 1391.81,5548.03 1380.46,5550.05 1380.02,5547.64 1390.87,5545.70 1390.12,5541.50 1392.70,5541.04 1391.86,5536.39 1378.27,5538.82 1377.69,5537.92 1373.78,5538.54 1368.22,5539.59 1373.84,5572.01 1383.58,5570.37"/>
    <poly id="252387410" type="amenity.place_of_worship" color="237,199,199" fill="1" layer="-1.00" shape="1666.34,5428.47 1665.97,5426.10 1664.18,5414.90 1662.40,5415.18 1659.04,5393.97 1660.80,5393.69 1658.95,5382.05 1652.11,5383.12 1652.34,5384.54 1646.29,5385.49 1646.08,5384.22 1621.79,5388.05 1624.27,5403.67 1622.51,5403.95 1625.26,5421.23 1627.23,5420.93 1627.71,5424.00 1627.60,5424.02 1628.94,5432.42 1633.77,5431.67 1634.24,5434.62 1649.66,5432.19 1649.13,5428.81 1654.10,5428.03 1652.83,5420.11 1652.14,5420.22 1651.60,5416.74 1653.94,5416.37 1651.58,5401.50 1654.51,5401.04 1659.04,5429.62 1666.34,5428.47"/>
    <poly id="252387410#1" type="building.yes" color="255,230,230" fill="1" layer="-1.00" shape="1666.34,5428.47 1665.97,5426.10 1664.18,5414.90 1662.40,5415.18 1659.04,5393.97 1660.80,5393.69 1658.95,5382.05 1652.11,5383.12 1652.34,5384.54 1646.29,5385.49 1646.08,5384.22 1621.79,5388.05 1624.27,5403.67 1622.51,5403.95 1625.26,5421.23 1627.23,5420.93 1627.71,5424.00 1627.60,5424.02 1628.94,5432.42 1633.77,5431.67 1634.24,5434.62 1649.66,5432.19 1649.13,5428.81 1654.10,5428.03 1652.83,5420.11 1652.14,5420.22 1651.60,5416.74 1653.94,5416.37 1651.58,5401.50 1654.51,5401.04 1659.04,5429.62 1666.34,5428.47"/>
    <poly id="252387412" type="building.apartments" color="255,230,230" fill="1" layer="-1.00" shape="1805.31,5374.88 1806.05,5379.26 1807.11,5385.54 1809.25,5398.17 1810.39,5404.79 1831.67,5401.15 1853.43,5397.35 1870.98,5394.29 1870.55,5391.86 1875.42,5391.01 1874.26,5384.39 1869.87,5359.45 1868.61,5352.31 1865.40,5352.87 1864.95,5350.31 1845.66,5353.68 1822.36,5357.83 1805.13,5360.82 1806.21,5365.94 1806.89,5370.03 1805.31,5374.88"/>
    <poly id="252387413" type="amenity.place_of_worship" color="237,199,199" fill="1" layer="-1.00" shape="2020.98,5571.01 2026.07,5574.45 2027.47,5580.70 2042.92,5578.11 2038.98,5552.33 2030.35,5501.79 2028.34,5502.13 2018.09,5516.50 2018.56,5519.25 2014.96,5519.87 2014.26,5515.77 2011.80,5516.19 2011.38,5513.70 2009.46,5502.49 1983.82,5506.86 1985.62,5517.46 1986.11,5520.30 1982.79,5520.86 1983.00,5522.14 1975.36,5523.45 1974.96,5523.52 1976.25,5531.12 1985.09,5529.61 1985.94,5534.56 1988.21,5534.18 1989.19,5539.90 1990.48,5547.49 1990.53,5547.79 2016.36,5543.39 2014.10,5530.12 2016.88,5529.65 2016.58,5527.84 2020.18,5527.24 2023.13,5544.57 2017.81,5552.95 2020.98,5571.01"/>
    <poly id="252387413#1" type="building.yes" color="255,230,230" fill="1" layer="-1.00" shape="2020.98,5571.01 2026.07,5574.45 2027.47,5580.70 2042.92,5578.11 2038.98,5552.33 2030.35,5501.79 2028.34,5502.13 2018.09,5516.50 2018.56,5519.25 2014.96,5519.87 2014.26,5515.77 2011.80,5516.19 2011.38,5513.70 2009.46,5502.49 1983.82,5506.86 1985.62,5517.46 1986.11,5520.30 1982.79,5520.86 1983.00,5522.14 1975.36,5523.45 1974.96,5523.52 1976.25,5531.12 1985.09,5529.61 1985.94,5534.56 1988.21,5534.18 1989.19,5539.90 1990.48,5547.49 1990.53,5547.79 2016.36,5543.39 2014.10,5530.12 2016.88,5529.65 2016.58,5527.84 2020.18,5527.24 2023.13,5544.57 2017.81,5552.95 2020.98,5571.01"/>
    <poly id="252387414" type="building.yes" color="255,230,230" fill="1" layer="-1.00" shape="1980.44,5554.16 1983.21,5570.62 1979.31,5571.28 1980.36,5577.56 1978.61,5577.85 1977.43,5570.80 1973.66,5571.44 1973.34,5569.55 1976.31,5569.05 1973.84,5554.36 1973.65,5553.23 1976.14,5552.81 1975.62,5549.72 1973.09,5550.15 1971.43,5540.26 1974.66,5539.71 1974.11,5536.46 1970.59,5537.05 1970.44,5536.12 1973.50,5535.60 1972.96,5532.40 1970.21,5532.86 1968.61,5523.35 1971.13,5522.92 1970.61,5519.87 1964.47,5520.92 1959.15,5521.81 1964.70,5554.64 1970.62,5589.93 1992.51,5586.25 1990.88,5576.57 1995.97,5575.71 1992.69,5556.18 1990.63,5556.53 1990.18,5553.85 1989.10,5547.37 1989.02,5546.89 1979.49,5548.49 1980.44,5554.16"/>
    <poly id="252387415" type="amenity.parking" color="184,184,179" fill="1" layer="-1.00" shape="1573.35,5465.12 1539.81,5470.75 1554.31,5556.52 1587.84,5550.89 1573.35,5465.12"/>
    <poly id="252387415#1" type="building.yes" color="255,230,230" fill="1" layer="-1.00" shape="1573.35,5465.12 1539.81,5470.75 1554.31,5556.52 1587.84,5550.89 1573.35,5465.12"/>
    <poly id="252387416" type="building.yes" color="255,230,230" fill="1" layer="-1.00" shape="1468.13,5569.18 1491.91,5565.33 1491.28,5561.49 1492.98,5561.22 1491.78,5553.83 1466.30,5557.97 1468.13,5569.18"/>
    <poly id="252387417" type="building.terrace" color="255,230,230" fill="1" layer="-1.00" shape="1286.15,5597.07 1283.77,5583.53 1283.40,5581.26 1279.31,5581.93 1281.09,5592.69 1279.08,5593.02 1277.26,5581.99 1269.62,5583.25 1271.45,5594.30 1269.34,5594.65 1267.50,5583.53 1259.82,5584.80 1261.69,5596.08 1260.03,5596.35 1258.22,5585.39 1250.41,5586.68 1252.19,5597.40 1250.44,5597.69 1248.66,5586.95 1240.46,5588.30 1242.24,5599.09 1240.72,5599.34 1238.89,5588.27 1234.54,5588.99 1236.92,5603.37 1237.63,5607.69 1286.57,5599.60 1286.15,5597.07"/>
    <poly id="252387418" type="building.commercial" color="255,230,230" fill="1" layer="-1.00" shape="1582.97,5463.26 1585.06,5475.97 1577.97,5477.12 1587.01,5532.27 1587.23,5533.57 1588.89,5543.90 1596.64,5542.67 1605.14,5541.36 1618.14,5539.28 1628.09,5537.65 1615.00,5458.04 1582.97,5463.26"/>
    <poly id="252387419" type="building.university" color="255,230,230" fill="1" layer="-1.00" shape="1441.34,5605.42 1448.69,5649.08 1452.88,5672.31 1392.59,5682.57 1389.61,5665.19 1386.25,5646.39 1378.85,5598.55 1389.93,5596.84 1390.94,5603.36 1410.42,5599.97 1414.23,5599.37 1413.03,5591.82 1432.53,5588.75 1435.33,5606.43 1441.34,5605.42"/>
    <poly id="252387420" type="building.university" color="255,230,230" fill="1" layer="-1.00" shape="1408.78,5631.77 1410.55,5642.40 1397.14,5644.62 1395.37,5633.99 1408.78,5631.77"/>
    <poly id="252387421" type="building.university" color="255,230,230" fill="1" layer="-1.00" shape="1415.89,5608.91 1419.41,5629.41 1437.91,5626.61 1441.27,5649.18 1436.02,5650.01 1434.40,5639.78 1433.32,5633.04 1416.87,5635.64 1411.95,5609.61 1415.89,5608.91"/>
    <poly id="252387466" type="amenity.car_rental" color="237,199,199" fill="1" layer="-1.00" shape="1291.82,5477.58 1305.64,5474.98 1307.37,5485.37 1292.83,5488.12 1291.82,5477.58"/>
    <poly id="252387466#1" type="building.yes" color="255,230,230" fill="1" layer="-1.00" shape="1291.82,5477.58 1305.64,5474.98 1307.37,5485.37 1292.83,5488.12 1291.82,5477.58"/>
    <poly id="252387611" type="building.commercial" color="255,230,230" fill="1" layer="-1.00" shape="1918.09,5462.03 1969.83,5453.49 1961.90,5405.42 1934.14,5410.00 1932.26,5410.32 1933.84,5419.85 1911.73,5423.50 1918.09,5462.03"/>
    <poly id="252387612" type="building.commercial" color="255,230,230" fill="1" layer="-1.00" shape="1790.29,5429.53 1784.16,5430.56 1763.90,5433.80 1770.58,5475.34 1775.86,5477.45 1787.37,5475.64 1791.18,5471.73 1796.66,5466.75 1790.29,5429.53"/>
    <poly id="25271533" type="leisure.park" color="207,245,201" fill="1" layer="-2.00" shape="3196.83,4610.87 3198.40,4619.67 3210.95,4689.84 3211.79,4694.52 3221.52,4748.88 3225.93,4773.49 3227.05,4779.82 3234.43,4778.64 3274.96,4772.07 3360.71,4758.17 3349.57,4691.84 3347.05,4676.83 3345.43,4667.34 3333.75,4597.24 3332.42,4589.08 3324.97,4590.28 3204.47,4609.58 3196.83,4610.87"/>