<?xml version="1.0" encoding="UTF-8"?>

<!-- generated on 06/18/17 19:26:23 by SUMO duarouter Version 0.29.0
<?xml version="1.0" encoding="UTF-8"?>

<configuration xmlns:xsi="http://www.w3.org/2001/XMLSchema-instance" xsi:noNamespaceSchemaLocation="http://sumo.dlr.de/xsd/duarouterConfiguration.xsd">

    <input>
        <net-file value="osm.net.xml"/>
        <trip-files value="osm.passenger.trips.xml"/>
    </input>

    <output>
        <output-file value="osm.passenger.rou.xml"/>
    </output>

    <processing>
        <ignore-errors value="true"/>
    </processing>

    <time>
        <begin value="0"/>
        <end value="3600.0"/>
    </time>

    <report>
        <no-warnings value="true"/>
        <no-step-log value="true"/>
    </report>

</configuration>
-->

<routes xmlns:xsi="http://www.w3.org/2001/XMLSchema-instance" xsi:noNamespaceSchemaLocation="http://sumo.dlr.de/xsd/routes_file.xsd">
    <vType id="passenger" vClass="passenger"/>
    <vehicle id="veh0" type="passenger" depart="0.00" departLane="best">
        <route edges="335828094#7 335828094#8 63060594 121643859#2 121643859#3 121643859#4 121643859#5 424804095#1 30908215 62202013#0 62202013#1 62202013#2 12185964#0 -12185964#0"/>
    </vehicle>
    <vehicle id="veh1" type="passenger" depart="2.41" departLane="best">
        <route edges="12181427#0 12181427#1 12181427#2 12181427#3 12181427#4 12181427#5 333012805#5 333012805#6 387422116#7 387422116#9 387422116#10 170020485#1 170020485#2 170020485#3 170020502#0 170020502#1 170020502#2 170020502#3 170020502#4 170020502#5 196355331#6 12152840#0 12152840#1"/>
    </vehicle>
    <vehicle id="veh2" type="passenger" depart="4.82" departLane="best">
        <route edges="41959768#3 387422116#5 387422116#6 387422116#7 387422116#9 387422116#10 492215278#1 104526264#0 104526264#1 104526272#0 104526272#1 424830809#1 42706664#2 63060589#8 63060589#9 63060589#10 63060589#11 12139665#0 12139665#1 12139665#2 12139665#3 12139665#4 12139665#5 12139665#6 12139665#7 12139665#8 12139665#9 12139665#10 12139665#11 12139665#12 -365918765#0 365918765#0"/>
    </vehicle>
    <vehicle id="veh3" type="passenger" depart="7.23" departLane="best">
        <route edges="62154278 195656295#1 195656295#2 12171198#0 12171198#1 121643859#0 121643859#1 121643859#2 121643859#3 121643859#4 121643859#5 424804077 30908211 424829497 288494848#0 288494848#1 424829498 127806783#0 127806783#1 424807268#1 104526289#0 104526289#1 62202555 42784689 127806930 62202553#0 62202553#1 104524019 42706630 386984972#0 386984972#1 104523987#0 104523987#1 104523987#2 104523987#3 104523987#4"/>
    </vehicle>
    <vehicle id="veh4" type="passenger" depart="9.64" departLane="best">
        <route edges="194837494#1 62202013#6 486653634#0 486653634#1 12136389#1 62202553#0 62202553#1 104524019 42706630 386984972#0 386984972#1 104523987#0 104523987#1 104523987#2 104523987#3 63060733#2 12190096 -12190096"/>
    </vehicle>
    <vehicle id="veh5" type="passenger" depart="12.05" departLane="best">
        <route edges="12159833#0 12159833#18 12159833#19 338900945#1 338900945#2 170020500#7 170020500#8 170020500#9 424807262 204883011#0 204883011#1 62202575#0 62202575#1 424829490 127806656#0 127806656#2 424807258#0 30908207#1 30908207#2 104526272#0 104526272#1 424830809#1 42706664#2 63060589#8 63060589#9 63060589#10 63060589#11 12139665#0 12139665#1 12139665#2 196207110#9"/>
    </vehicle>
    <vehicle id="veh6" type="passenger" depart="14.45" departLane="best">
        <route edges="-12185964#0 62202013#3 49960966#7 49960966#8 49960966#9 49960966#10 49960966#11 49960966#13 49960966#14 49960966#15 49960966#16 49960966#17 49960966#18 170020486#6 170020485#1 170020485#2 170020485#3 -424807264 -387422123#4 12149082#0 12149082#1 12149082#3"/>
    </vehicle>
    <vehicle id="veh7" type="passenger" depart="16.86" departLane="best">
        <route edges="336018361#6 62202003#0 170020486#0 170020486#1 170020486#2 170020486#3 170020486#4 170020486#5 170020486#6 170020485#1 170020485#2 170020485#3 204883011#0 204883011#1"/>
    </vehicle>
    <vehicle id="veh8" type="passenger" depart="19.27" departLane="best">
        <route edges="12159833#0 12159833#18 12159833#19 338900945#1 338900945#2 170020500#7 170020500#8 170020500#9 424807262 204883011#0 204883011#1 62202575#0 62202575#1 424829490 127806656#0 127806656#2 424807258#0 30908207#1 30908207#2 104526272#0 104526272#1 424830809#1 334310264#0 334310264#1 334310264#2 334310264#3 334310264#4 334310264#5 334310264#7 30908229#1"/>
    </vehicle>
    <vehicle id="veh9" type="passenger" depart="21.68" departLane="best">
        <route edges="42706545 -42706545 12143393 62203076#0 60185767#0 60185767#1 60185767#2 60185767#3 60185767#4 60185767#5 62203287#8 62203287#9 145605479#0 404615577 12167191#0 12167191#1 12167191#3 12167191#4 424829489#0 424829489#1 -62202668#0 486653634#0 486653634#1 12136389#1 62202553#0 62202553#1 104524019 12206551 62202559 12202652 127806656#0 62202565 -12153942#1"/>
    </vehicle>
    <vehicle id="veh10" type="passenger" depart="24.09" departLane="best">
        <route edges="424830812#6 41959768#6 61294556#0 61294556#2 12185932#0 12185932#1 12185932#3 12185932#4 335828094#7 335828094#8 63060594 121643859#2 121643859#3 121643859#4 121643859#5 424804095#1 30908249#1 62202009 30908242#1 30908323 63060589#0 63060589#2 63060589#3 63060589#4 12167190#5 387162762#10"/>
    </vehicle>
    <vehicle id="veh11" type="passenger" depart="26.50" departLane="best">
        <route edges="12204493#0 12204493#1 12204493#2 336018361#6 62202003#0 62202003#1 62202003#2 62202003#3 62202003#4 62202003#5 62202003#6 62202003#7 404615580#0 404615580#1 424804094 195656295#0 195656295#1 195656295#2 195656295#3 195656295#4 424804081#0 424804081#1 12116067#0 12116067#1 12116067#2"/>
    </vehicle>
    <vehicle id="veh12" type="passenger" depart="28.91" departLane="best">
        <route edges="62203286#2 -62203286#2 -62203286#0 62203285#8 62203285#9 62203285#10 62203287#3 62203287#4 62203287#5 62203287#6 62203287#7 62203287#8 62203287#9 145605479#0 12182905#0 12182905#1 12182905#2 12182905#3 12182905#4"/>
    </vehicle>
    <vehicle id="veh13" type="passenger" depart="31.32" departLane="best">
        <route edges="104524010#0 42706648#0 42706648#1 104524024#0 104524024#1"/>
    </vehicle>
    <vehicle id="veh14" type="passenger" depart="33.73" departLane="best">
        <route edges="49960966#9 49960966#10 49960966#11 62202576#1 62202576#2 288494847#1 288494847#2 288494847#3 288494847#4 62202003#0 62202003#1 62202003#2 62202003#3 62202003#4 63060594 170020472#0 170020472#1 170020472#2 12204350#1 -12204352#1 12198369#0 12198369#1 32130889"/>
    </vehicle>
    <vehicle id="veh15" type="passenger" depart="36.14" departLane="best">
        <route edges="204883041 424804085 62202559 12202652 127806656#0 127806656#2 424807258#0 30908207#1 30908207#2 104526272#0 104526272#1 424830809#1 12167190#2 12167190#3 12167190#4 63060589#5 63060589#6 63060589#7"/>
    </vehicle>
    <vehicle id="veh16" type="passenger" depart="38.54" departLane="best">
        <route edges="170020472#3 170020472#4 12158274#4 12112698#13 12112698#14 12112698#15 121643859#3 121643859#4 121643859#5 424804095#1 30908249#1 62202009 30908242#1 30908323 63060589#0 63060589#2 63060589#3 63060589#4 12167190#5 12167190#9 12167190#10 63060735#0 63060735#1 195807754 206643340#0 206643340#1 206643340#2"/>
    </vehicle>
    <vehicle id="veh17" type="passenger" depart="40.95" departLane="best">
        <route edges="486653634#0 486653634#1 63063024#0 63063024#1 50171184#0 288494850#0 288494850#1 424807266 334310264#0 334310264#1 334310264#2 334310264#3 49960966#4 49960966#5 49960966#6 49960966#7 49960966#8 49960966#9 49960966#10 49960966#11 62202576#1 62202576#2 288494847#1 288494847#2 288494847#3 288494847#4 62202003#0 62202003#1 62202003#2 62202003#3 62202003#4 62202003#5 333012806#0"/>
    </vehicle>
    <vehicle id="veh18" type="passenger" depart="43.36" departLane="best">
        <route edges="60185772 60185767#0 60185767#1 60185767#2 60185767#3 60185767#4 60185767#5 62203287#8 62203287#9 145605479#0 404615577 12167191#0 12167191#1 12167191#3 12167191#4 424829489#0 424829489#1 -62202668#0 486653634#0 486653634#1 12136389#1 62202553#0 62202553#1 104524019 12206551 62202559 12202652 -424829490 -62202575#1 -62202575#0 -204883011#1 -204883011#0 -424807264 -387422123#4 387422123#4 30908180#0"/>
    </vehicle>
    <vehicle id="veh19" type="passenger" depart="45.77" departLane="best">
        <route edges="387422116#10 492215278#1 104526264#0 104526264#1 104526272#0 104526272#1 424830809#1 42706664#2 42706664#3 42706664#4 42706664#5 42706664#6 42706664#7 42706664#8 42706664#9 42706664#10 42706664#11 42706664#12 42706664#13 42706664#14 12186741#4 12186741#5 -196393940#1"/>
    </vehicle>
    <vehicle id="veh20" type="passenger" depart="48.18" departLane="best">
        <route edges="12160575#2 195815883#3 394179820#4 196355327#1 196355327#2 196355327#3 196355327#5 -196393940#0 -262962060 -262962059 -42706545 12143393 62203076#0 60185767#0 60185767#1 60185767#2 60185767#3 60185767#4 60185767#5 62203287#8 62203287#9 145605479#0 404615577 12167191#0 12167191#1 49960966#2 49960966#3 49960966#4 49960966#5 49960966#6 49960966#7 49960966#8 49960966#9 49960966#10 49960966#11 49960966#13 49960966#14 49960966#15 49960966#16 49960966#17 49960966#18 424830812#0 424830812#1 424830812#2 424830812#3 424830812#4 424830812#5 424830812#6 424830812#7 424830812#8 424830812#9 62202366#0 12178808 424804082#1 424804082#2 195656295#0 195656295#1 195656295#2 195656295#3 195656295#4 424804081#0 424804081#1 12116067#0 12116067#1 12166069#1 12166069#2"/>
    </vehicle>
    <vehicle id="veh21" type="passenger" depart="50.59" departLane="best">
        <route edges="-62203073#2 62203073#2 62203157#0 387163157#0 387163157#1 404615578 145605479#0 404615577 12167191#0 12167191#1 49960966#2 49960966#3 49960966#4 49960966#5 49960966#6 49960966#7 49960966#8 49960966#9 49960966#10 49960966#11 49960966#13 49960966#14 49960966#15 49960966#16 49960966#17 49960966#18 424830812#0 424830812#1 424830812#2 424830812#3 424830812#4 424830812#5 424830812#6 424830812#7 424830812#8 424830812#9 62202366#0 12178808 424804082#1 424804082#2 195656295#0 195656295#1 195656295#2 195656295#3 195656295#4 424804081#0 424804081#1 62153734#2 424830811 424804074#0 424804074#1 424804074#2 12158274#0 12158274#1"/>
    </vehicle>
    <vehicle id="veh22" type="passenger" depart="53.00" departLane="best">
        <route edges="104524034#3 12159833#21 12159833#22 387422123#3 387422123#4 30908180#0 30908180#1 335828093#1 335828094#1 335828094#2 335828094#3 335828094#4-AddedOnRampEdge 335828094#4 335828094#5 335828094#6 335828094#7 335828094#8 63060594 121643859#2 121643859#3 121643859#4 121643859#5"/>
    </vehicle>
    <vehicle id="veh23" type="passenger" depart="55.41" departLane="best">
        <route edges="335828094#4-AddedOnRampEdge 335828094#4 335828094#5 335828094#6 335828094#7 335828094#8 63060594 121643859#2 121643859#3 121643859#4 121643859#5 424804095#1 30908215 62202013#0 62202013#1 62202013#2 62202013#3 62202013#4 62202013#5 62202013#6 424830809#1 42706664#2 42706664#3 42706664#4 42706664#5 42706664#6 42706664#7 42706664#8 387162758#7 387162758#9 387162758#10 12150213#0 12150213#2 12150213#3 12150213#4 338900945#15 338900945#16 196355327#1 196355327#2 196355327#3 12202013"/>
    </vehicle>
    <vehicle id="veh24" type="passenger" depart="57.82" departLane="best">
        <route edges="167194800#0 12166287#1 338900945#0 338900945#1 338900945#2 170020500#7 170020500#8 170020500#9 424807262 204883011#0 204883011#1 62202575#0 62202575#1 424829490 127806656#0 127806656#2 424807258#0 30908207#1 30908207#2 104526272#0 104526272#1 424830809#1 42706664#2 42706664#3 42706664#4 42706664#5 42706664#6 42706664#7 42706664#8 387162758#7 387162758#9 387162758#10 12150213#0 12150213#2 12150213#3 12150213#4 12150213#5 12150213#6 12150213#7 12150213#8 12150213#9 12150213#10 12150213#11 12150213#12 12150213#13 12150213#14"/>
    </vehicle>
    <vehicle id="veh25" type="passenger" depart="60.23" departLane="best">
        <route edges="12174752#3 196355331#9 196355331#10 204883042 204883041 424804085 62202559 12202652 127806656#0 127806656#2 424807258#0 30908207#1 30908207#2 104526272#0 104526272#1 424830809#1 42706664#2 42706664#3 42706664#4 42706664#5 42706664#6 42706664#7 42706664#8 42706664#9 42706664#10 42706664#11 42706664#12 62203285#6 62203285#7 62203285#8 62203285#9 62203285#10 62203285#11 62203285#13 62203285#14"/>
    </vehicle>
    <vehicle id="veh26" type="passenger" depart="62.64" departLane="best">
        <route edges="12149082#0 12149082#1 12202011#0 12202011#1 170020500#9 424807262 204883011#0 204883011#1 62202575#0 62202575#1 424829490 127806656#0 127806656#2 424807258#0 30908207#1 30908207#2 62202368#1 62202576#1 62202576#2 62202576#3 62202001 121643866 121643866-AddedOffRampEdge 12113187 404615586"/>
    </vehicle>
    <vehicle id="veh27" type="passenger" depart="65.04" departLane="best">
        <route edges="12142551#0 12142551#1 12202028#2 196355317#12 12180158#0 12180158#1 12180158#2 387162762#0 387162762#1 387162762#3 387162762#4 387162762#5 49960966#2 49960966#3 49960966#4 49960966#5 49960966#6 49960966#7 49960966#8 49960966#9 49960966#10 49960966#11 62202576#1 62202576#2 288494847#1 288494847#2 288494847#3 288494847#4 62202003#0 170020486#0 12204493#0 12204493#1 12204493#2"/>
    </vehicle>
    <vehicle id="veh28" type="passenger" depart="67.45" departLane="best">
        <route edges="63060733#5 196355317#5 196355317#6 196355317#7 196355317#8 196355317#9 196355317#11 196355317#12 12180158#0 12180158#1 12180158#2 387162762#0 387162762#1 387162762#3 387162762#4 387162762#5 49960966#2 49960966#3 49960966#4 49960966#5 49960966#6 49960966#7 49960966#8 49960966#9 49960966#10 49960966#11 49960966#13 49960966#14 49960966#15 49960966#16 49960966#17 49960966#18 170020486#6 170020485#1 170020485#2 194837500 335853588 335853587#0 30908180#1 335828093#1 335828094#1 335828094#2 335828094#3"/>
    </vehicle>
    <vehicle id="veh29" type="passenger" depart="69.86" departLane="best">
        <route edges="288494849#5 387162762#0 387162762#1 387162762#3 387162762#4 387162762#5 12167191#3 12167191#4 424829489#0 424829489#1 -62202668#0 486653634#0 486653634#1 12136389#1 62202553#0 62202553#1 104524019 12206551 62202559 62202556 12174752#0 12174752#1 12174752#2 12174752#3 377654463#0 377654463#1 377654463#2"/>
    </vehicle>
    <vehicle id="veh30" type="passenger" depart="72.27" departLane="best">
        <route edges="49960966#4 49960966#5 49960966#6 49960966#7 49960966#8 49960966#9 49960966#10 49960966#11 49960966#13 49960966#14 49960966#15 49960966#16 49960966#17 49960966#18 424830812#0 424830812#1 424830812#2 424830812#3 424830812#4 424830812#5 424830812#6 424830812#7 424830812#8 424830812#9 424829496#0 424829496#2 424829496#3 424829493#0 424829493#1"/>
    </vehicle>
    <vehicle id="veh31" type="passenger" depart="74.68" departLane="best">
        <route edges="121643794 195656295#2 12171198#0 62154274#2 62154274#3 62154274#4 62154274#5 62154274#6 62154274#7 62154274#8 424829494 424829496#0 424829496#2 424829496#3 424829493#0 424829493#1 424829493#2 424829495#0 424829495#1 424829495#2 424829495#3 387422123#2 387422123#3 12149082#0 12149082#1 -12202010"/>
    </vehicle>
    <vehicle id="veh32" type="passenger" depart="77.09" departLane="best">
        <route edges="12198369#0 12198369#1 206999066#0 206999066#1 206999066#3 206999066#4 121643859#1 121643859#2 121643859#3 121643859#4 121643859#5 424804077 30908211 12113129#1 62202001 121643866 121643866-AddedOffRampEdge 12114017#1 12114017#1-AddedOffRampEdge 40087391 121643795"/>
    </vehicle>
    <vehicle id="veh33" type="passenger" depart="79.50" departLane="best">
        <route edges="12158602#8 196355331#1 12159833#18 12159833#19 338900945#1 338900945#2 170020500#7 170020500#8 170020500#9 424807262 204883011#0 204883011#1 62202575#0 62202575#1 424829490 127806656#0 127806656#2 424807258#0 30908207#1 30908207#2 104526272#0 104526272#1 424830809#1 42706664#2 42706664#3 42706664#4 42706664#5 42706664#6 42706664#7 42706664#8 387162758#7 387162758#9 387162758#10 196393940#0 62203285#0 62203285#2 62203285#3"/>
    </vehicle>
    <vehicle id="veh34" type="passenger" depart="81.91" departLane="best">
        <route edges="62153734#0 62153734#1 62153734#2 424830811 62154274#0 62154274#1 12171198#1 121643859#0 121643859#1 121643859#2 121643859#3 121643859#4 121643859#5 424804077 30908211 424829497 288494848#0 288494848#1 424829498 127806783#0 127806783#1 424807268#1 104526289#0 104526289#1 62202555 42784689 127806930 62202553#0 62202553#1 104524019 12206551 62202559 62202556 12174752#0 12174752#1"/>
    </vehicle>
    <vehicle id="veh35" type="passenger" depart="84.32" departLane="best">
        <route edges="338900945#13 195815859#9 195815859#10 195815859#11 195815859#12 195815859#13 12143393 62203076#0 60185767#0 60185767#1 60185767#2 60185767#3 60185767#4 60185767#5 62203287#8 62203287#9 145605479#0 404615577 12167191#0 12167191#1 49960966#2 49960966#3 49960966#4 49960966#5 49960966#6 49960966#7 49960966#8 49960966#9 49960966#10 49960966#11 424829498 127806783#0 127806783#1 424807268#1 104526289#0 104526289#1 62202555 42784689 127806930"/>
    </vehicle>
    <vehicle id="veh36" type="passenger" depart="86.73" departLane="best">
        <route edges="62202366#1 12116014 424804082#1 424804082#2 195656295#0 195656295#1 195656295#2 12171198#0 12171198#1 121643859#0 121643859#1 121643859#2 121643859#3 121643859#4 121643859#5 424804095#1 30908249#1 62202009 30908242#1 30908323 63060589#0 63060589#2 63060589#3 63060589#4 194837494#6 194837494#7 194837494#8 194837494#9 194837494#10 194837494#11 194837494#12"/>
    </vehicle>
    <vehicle id="veh37" type="passenger" depart="89.14" departLane="best">
        <route edges="12174752#1 -12174752#1 42706648#1 104524024#0 104524024#1 104524024#2 -204883011#1 -204883011#0 -424807264 -387422123#4 -387422123#3 -387422123#2 12158602#0 12158602#1 12158602#2 12158602#3 12158602#4 12158602#5"/>
    </vehicle>
    <vehicle id="veh38" type="passenger" depart="91.54" departLane="best">
        <route edges="30908088 424804094 195656295#0 195656295#1 195656295#2 12171198#0 62154274#2 62154274#3 62154274#4 62154274#5 62154274#6 62154274#7 62154274#8 424829494 424829496#0 424829496#2 424829496#3 424829493#0 424829493#1 424829493#2 424829495#0 424829495#1 424829495#2 424829495#3 12158602#0 12158602#1 12158602#2 12158602#3 12159449#2 12159449#3 12159833#22"/>
    </vehicle>
    <vehicle id="veh39" type="passenger" depart="93.95" departLane="best">
        <route edges="30908343#0 30908343#1 195807754 63060731#0 63060731#1 404615578 145605479#0 404615577 12167191#0 12167191#1 49960966#2 49960966#3 49960966#4 49960966#5 49960966#6 49960966#7 49960966#8 49960966#9 49960966#10 49960966#11 49960966#13 49960966#14 49960966#15 49960966#16 49960966#17 49960966#18 424830812#0 424830812#1 424830812#2 424830812#3 424830812#4 424830812#5 424830812#6 424830812#7 424830812#8 424830812#9 62202366#0"/>
    </vehicle>
    <vehicle id="veh40" type="passenger" depart="96.36" departLane="best">
        <route edges="170020502#0 170020502#1 170020502#2 170020502#3 338900945#4 338900945#5 338900945#6 338900945#8 338900945#9 338900945#10 338900945#11 338900945#12 338900945#13 338900945#14 12150213#5 12150213#6 12150213#7 12150213#8 12150213#9"/>
    </vehicle>
    <vehicle id="veh41" type="passenger" depart="98.77" departLane="best">
        <route edges="87326584#0 -87326584#0 335828093#1 387422116#10 492215278#1 104526264#0 104526264#1 104526272#0 104526272#1 424830809#1 42706664#2 63060589#8 63060589#9 63060589#10 63060589#11 12139665#0 12139665#1 12139665#2 12139665#3 12139665#4 338900945#11 338900945#12 12142551#6 12142551#8 195815880 12118038#1 196355330#1 -195815857#1 -12189884#2 -12189884#1 -12189884#0 196355319#0 196355319#1 196355317#0"/>
    </vehicle>
    <vehicle id="veh43" type="passenger" depart="103.59" departLane="best">
        <route edges="104526289#1 62202555 42784689 127806930 62202553#0 62202553#1 104524019 42706630 386984972#0 386984972#1 104523987#0 104523987#1 338900945#9 338900945#10 12139665#5 12139665#6 12139665#7 12139665#8 12139665#9 12139665#10 12139665#11 173544047#3 334903476#9 334903476#10"/>
    </vehicle>
    <vehicle id="veh44" type="passenger" depart="106.00" departLane="best">
        <route edges="424829495#3 -387422123#1 424829492#0 424829492#1 424829492#2 424829492#3 424829492#4 424829491 12116014 424804082#1 424804082#2 195656295#0 195656295#1 195656295#2 12171198#0 12171198#1 121643859#0 121643859#1 121643859#2 63060593 170020486#0 170020486#1 170020486#2 170020486#3"/>
    </vehicle>
    <vehicle id="veh45" type="passenger" depart="108.41" departLane="best">
        <route edges="-59676508 -62203286#2 -62203286#0 62203285#8 62203285#9 62203285#10 62203287#3 62203287#4 62203287#5 62203287#6 62203287#7 62203287#8 62203287#9 145605479#0 404615577 12167191#0 12167191#1 12167191#3 12167191#4 424829489#0 424829489#1 -62202668#0 486653634#0 486653634#1 12136389#1 62202553#0 62202553#1 104524019 12206551 62202559 12202652 -424829490 -62202575#1 -62202575#0 -204883011#1 -204883011#0 -424807264 -387422123#4 12149082#0 12149082#1 12149082#3 12149082#4 12149082#5 12149082#6 196355331#3 196355331#4 12205355"/>
    </vehicle>
    <vehicle id="veh46" type="passenger" depart="110.82" departLane="best">
        <route edges="63063024#1 50171184#0 288494850#0 288494850#1 424807266 -62202668#0 486653634#0 486653634#1 12136389#1 62202553#0 62202553#1 104524019 12206551 62202559 12202652 -424829490 -62202575#1 -62202575#0 -204883011#1 -204883011#0 -424807264 -387422123#4 12149082#0 12149082#1 12149082#3 12149082#4 12149082#5 12149082#6 196355331#3"/>
    </vehicle>
    <vehicle id="veh49" type="passenger" depart="118.04" departLane="best">
        <route edges="387162758#3 387162758#4 387162758#5 387162758#6 387162758#7 387162758#9 387162758#10 196393940#0 196393940#1"/>
    </vehicle>
    <vehicle id="veh50" type="passenger" depart="120.45" departLane="best">
        <route edges="12174752#3 196355331#9 196355331#10 204883042 204883041 424804085 62202559 12202652 127806656#0 62202565 -12153942#1 -12153942#0 194837500 335853588 335853587#0 30908180#1 335828093#1 335828094#1 335828094#2 335828094#3 335828094#4-AddedOnRampEdge 335828094#4"/>
    </vehicle>
    <vehicle id="veh52" type="passenger" depart="125.27" departLane="best">
        <route edges="195815843#0 195815843#1 195807755#0 12180158#0 12180158#1 12180158#2 387162762#0 387162762#1 387162762#3 42706664#4 42706664#5 42706664#6 42706664#7 42706664#8 42706664#9 42706664#10 42706664#11 42706664#12 62203285#6 62203285#7 62203285#8 62203285#9 62203285#10 62203287#3 62203287#4"/>
    </vehicle>
    <vehicle id="veh53" type="passenger" depart="127.68" departLane="best">
        <route edges="62153734#0 62153734#1 62153734#2 424830811 62154274#0 62154274#1 12171198#1 121643859#0 121643859#1 121643859#2 121643859#3 121643859#4 121643859#5 424804095#1 30908215 62202013#0 62202013#1 62202013#2 62202013#3 62202013#4 62202013#5 62202013#6 424830809#1 42706664#2 42706664#3 42706664#4 42706664#5 42706664#6 42706664#7 42706664#8 387162758#7 387162758#9 387162758#10 12150213#0 12150213#2 12150213#3 12150213#4 338900945#15 338900945#16 196355327#1 196355327#2 196355327#3 12202021#0 12160575#0"/>
    </vehicle>
    <vehicle id="veh54" type="passenger" depart="130.09" departLane="best">
        <route edges="12186741#0 62203287#0 62203287#1 62203287#2 62203287#3 62203287#4 62203287#5 62203287#6 62203287#7 62203287#8 62203287#9 145605479#0 404615577 12167191#0 12167191#1 49960966#2 49960966#3 49960966#4 49960966#5 49960966#6 49960966#7 49960966#8 49960966#9 49960966#10 49960966#11 49960966#13 49960966#14 49960966#15 49960966#16 49960966#17 49960966#18 170020486#6 170020485#1 170020485#2 194837500 335853588 335853587#0 30908180#1 335828093#1 335828094#1 335828094#2"/>
    </vehicle>
    <vehicle id="veh55" type="passenger" depart="132.50" departLane="best">
        <route edges="334310264#0 334310264#1 334310264#2 334310264#3 49960966#4 49960966#5 49960966#6 49960966#7 49960966#8 49960966#9 49960966#10 49960966#11 49960966#13 49960966#14 49960966#15 49960966#16 49960966#17 49960966#18 424830812#0 424830812#1 424830812#2 424830812#3 424830812#4 424830812#5 424830812#6 424830812#7 424830812#8 424830812#9 62202366#0 12178808 424804082#1 424804082#2 195656295#0 195656295#1 195656295#2 195656295#3 195656295#4 424804081#0 424804081#1 12116067#0 12116067#1 12116067#2"/>
    </vehicle>
    <vehicle id="veh56" type="passenger" depart="134.91" departLane="best">
        <route edges="424804082#2 195656295#0 195656295#1 195656295#2 12171198#0 12171198#1 121643859#0 121643859#1 121643859#2 121643859#3 121643859#4 121643859#5 424804095#1 30908215 62202013#0 62202013#1 62202013#2 62202013#3 62202013#4 62202013#5 62202013#6 424830809#1 42706664#2 42706664#3 42706664#4 42706664#5 42706664#6 42706664#7 42706664#8 387162758#7 387162758#9 387162758#10 196393940#0 196393940#1"/>
    </vehicle>
    <vehicle id="veh57" type="passenger" depart="137.32" departLane="best">
        <route edges="424829491 12116014 424804082#1 424804082#2 195656295#0 195656295#1 195656295#2 12171198#0 62154274#2 62154274#3 62154274#4 62154274#5 62154274#6 62154274#7 62154274#8 424829494 424829496#0 424829496#2 424829496#3 424829493#0 424829493#1 424829493#2 424829495#0 424829495#1 424829495#2 424829495#3 12158602#0 12158602#1 12158602#2 12158602#3 12158602#4 12158602#5 12158602#6 12158602#7 338900945#0 338900945#1 12149082#6 196355331#3 196355331#4"/>
    </vehicle>
    <vehicle id="veh59" type="passenger" depart="142.13" departLane="best">
        <route edges="-12169047 30908323 63060589#0 63060589#2 63060589#3 63060589#4 63060589#5 63060589#6 63060589#7 42706664#3 42706664#4 42706664#5 42706664#6 42706664#7 60185767#3 60185767#4 60185767#5 62203073#0 62203073#1"/>
    </vehicle>
    <vehicle id="veh60" type="passenger" depart="144.54" departLane="best">
        <route edges="62153734#0 62153734#1 62153734#2 424830811 62154274#0 62154274#1 12171198#1 121643859#0 121643859#1 121643859#2 121643859#3 121643859#4 121643859#5 424804077 30908211 424829497 288494848#0 288494848#1 49960966#13 49960966#14 49960966#15 49960966#16 49960966#17"/>
    </vehicle>
    <vehicle id="veh61" type="passenger" depart="146.95" departLane="best">
        <route edges="12189624#3 12158274#6 134099367#1 424804078 424804077 30908211 424829497 288494848#0 288494848#1 49960966#13 49960966#14 49960966#15 49960966#16 49960966#17 49960966#18 170020486#6 170020485#1 170020485#2 170020485#3 -424807264 -387422123#4 -387422123#3"/>
    </vehicle>
    <vehicle id="veh62" type="passenger" depart="149.36" departLane="best">
        <route edges="62153734#0 62153734#1 62153734#2 424830811 62154274#0 62154274#1 12171198#1 121643859#0 121643859#1 121643859#2 121643859#3 121643859#4 121643859#5 424804095#1 30908215 62202013#0 62202013#1 62202013#2 62202013#3 62202013#4 62202013#5 62202013#6 424830809#1 42706664#2 42706664#3 42706664#4 42706664#5 42706664#6 42706664#7 42706664#8 42706664#9 42706664#10 42706664#11 42706664#12 62203285#6 62203285#7 62203285#8 62203285#9"/>
    </vehicle>
    <vehicle id="veh63" type="passenger" depart="151.77" departLane="best">
        <route edges="-87326584#1 -87326584#0 335828093#1 387422116#10 492215278#1 104526264#0 104526264#1 104526272#0 104526272#1 424830809#1 42706664#2 42706664#3 42706664#4 42706664#5 42706664#6 42706664#7 42706664#8 387162758#7 387162758#9 387162758#10 12150213#0 12202028#0 195815859#13"/>
    </vehicle>
    <vehicle id="veh64" type="passenger" depart="154.18" departLane="best">
        <route edges="-60185767#3 60185767#3 60185767#4 60185767#5 62203287#8 62203287#9 145605479#0 404615577 12167191#0 12167191#1 12167191#3 12167191#4 424829489#0 424829489#1 -62202668#0 486653634#0 486653634#1 12136389#1 62202553#0 62202553#1 104524019 12206551 62202559 12202652 -424829490 -62202575#1 -62202575#0 -204883011#1 -204883011#0 -424807264 -387422123#4 387422123#4 424807262"/>
    </vehicle>
    <vehicle id="veh65" type="passenger" depart="156.59" departLane="best">
        <route edges="196207110#0 196355327#2 196355327#3 196355327#5 -196393940#0 -262962060 -262962059 -42706545 12143393 62203076#0 60185767#0 60185767#1 60185767#2 60185767#3 60185767#4 60185767#5 62203287#8 62203287#9 145605479#0 63060730#0 63060730#1 63060735#0 63060735#1 195807754 206643340#0 206643340#1 206643340#2"/>
    </vehicle>
    <vehicle id="veh67" type="passenger" depart="161.41" departLane="best">
        <route edges="194837494#11 194837494#12 -60185767#4 -60185767#3 42706664#8 387162758#7 387162758#9 387162758#10 12150213#0 12150213#2 12150213#3 12150213#4 12150213#5 12150213#6 12150213#7 12150213#8 12150213#9 12150213#10 12150213#11 12150213#12 12150213#13 12150213#14"/>
    </vehicle>
    <vehicle id="veh68" type="passenger" depart="163.82" departLane="best">
        <route edges="206999066#0 206999066#1 206999066#3 206999066#4 121643859#1 121643859#2 121643859#3 121643859#4 121643859#5 424804077 30908211 12113129#1 62202001 121643866 121643866-AddedOffRampEdge 12113187 404615586"/>
    </vehicle>
    <vehicle id="veh69" type="passenger" depart="166.22" departLane="best">
        <route edges="12158274#5 12158274#6 134099367#1 424804078 424804095#1 30908249#1 62202009 30908242#1 12169047"/>
    </vehicle>
    <vehicle id="veh70" type="passenger" depart="168.63" departLane="best">
        <route edges="63063024#0 63063024#1 50171184#0 288494850#0 288494850#1 424807266 334310264#0 334310264#1 334310264#2 334310264#3 49960966#4 49960966#5 49960966#6 49960966#7 49960966#8 49960966#9 49960966#10 49960966#11 49960966#13 49960966#14 49960966#15 49960966#16 49960966#17 49960966#18 170020486#6 170020485#1 170020485#2 194837500 335853588"/>
    </vehicle>