<?xml version="1.0"?>
<!-- generated on 2017-07-31 10:30:22.317743 by $Id: randomTrips.py 23999 2017-04-21 09:04:47Z behrisch $
  options: -n grid.net.xml -o grid-0p3/grid-0p3.trips.xml -r grid-0p3/grid-0p3.rou.xml -e 100 -p 0.3
-->
<routes xmlns:xsi="http://www.w3.org/2001/XMLSchema-instance" xsi:noNamespaceSchemaLocation="http://sumo.dlr.de/xsd/routes_file.xsd">
    <trip id="0" depart="0.00" from="4/8to4/7" to="0/2toleft2"/>
    <trip id="1" depart="0.30" from="left1to0/1" to="2/7to1/7"/>
    <trip id="2" depart="0.60" from="top3to3/9" to="3/5to4/5"/>
    <trip id="3" depart="0.90" from="0/8to0/7" to="1/7to1/8"/>
    <trip id="4" depart="1.20" from="2/0to3/0" to="1/0to1/1"/>
    <trip id="5" depart="1.50" from="0/6to0/7" to="4/7to4/8"/>
    <trip id="6" depart="1.80" from="3/8to2/8" to="2/3to1/3"/>
    <trip id="7" depart="2.10" from="2/5to3/5" to="0/4to1/4"/>
    <trip id="8" depart="2.40" from="3/3to4/3" to="3/1to3/2"/>
    <trip id="9" depart="2.70" from="1/0to0/0" to="2/9to2/8"/>
    <trip id="10" depart="3.00" from="1/0to0/0" to="1/9to0/9"/>
    <trip id="11" depart="3.30" from="bottom3to3/0" to="1/7to1/8"/>
    <trip id="12" depart="3.60" from="2/5to3/5" to="0/6to1/6"/>
    <trip id="13" depart="3.90" from="0/1to0/2" to="1/3to2/3"/>
    <trip id="14" depart="4.20" from="3/7to3/6" to="1/9to2/9"/>
    <trip id="15" depart="4.50" from="3/1to3/2" to="0/4to0/5"/>
    <trip id="16" depart="4.80" from="1/7to1/6" to="3/0to3/1"/>
    <trip id="17" depart="5.10" from="3/6to4/6" to="2/9to1/9"/>
    <trip id="18" depart="5.40" from="3/3to3/4" to="3/5to3/6"/>
    <trip id="19" depart="5.70" from="4/2to4/1" to="1/5to2/5"/>
    <trip id="20" depart="6.00" from="2/6to1/6" to="1/5to2/5"/>
    <trip id="21" depart="6.30" from="2/9to1/9" to="3/6to4/6"/>
    <trip id="22" depart="6.60" from="2/8to1/8" to="4/1to3/1"/>
    <trip id="23" depart="6.90" from="3/5to3/6" to="3/0to3/1"/>
    <trip id="24" depart="7.20" from="1/7to0/7" to="4/8toright8"/>
    <trip id="25" depart="7.50" from="1/2to2/2" to="1/2to1/3"/>
    <trip id="26" depart="7.80" from="1/0to2/0" to="4/7to4/6"/>
    <trip id="27" depart="8.10" from="3/4to3/3" to="2/6to3/6"/>
    <trip id="28" depart="8.40" from="0/7to1/7" to="4/5to3/5"/>
    <trip id="29" depart="8.70" from="1/9to1/8" to="1/5to0/5"/>
    <trip id="30" depart="9.00" from="0/1to1/1" to="2/1to3/1"/>
    <trip id="31" depart="9.30" from="4/1to4/0" to="4/5to4/6"/>
    <trip id="32" depart="9.60" from="4/4to4/3" to="0/3to0/2"/>
    <trip id="33" depart="9.90" from="2/1to3/1" to="4/9to4/8"/>
    <trip id="34" depart="10.20" from="1/2to1/1" to="4/3to4/4"/>
    <trip id="35" depart="10.50" from="4/8to4/7" to="4/2to4/1"/>
    <trip id="36" depart="10.80" from="1/2to2/2" to="1/6to2/6"/>
    <trip id="37" depart="11.10" from="1/9to2/9" to="4/2to4/3"/>
    <trip id="38" depart="11.40" from="4/0to3/0" to="0/6to1/6"/>
    <trip id="39" depart="11.70" from="left6to0/6" to="3/7to3/6"/>
    <trip id="40" depart="12.00" from="3/7to3/6" to="0/0toleft0"/>
    <trip id="41" depart="12.30" from="top0to0/9" to="4/4to3/4"/>
    <trip id="42" depart="12.60" from="2/3to3/3" to="2/7to1/7"/>
    <trip id="43" depart="12.90" from="0/2to0/1" to="2/0to2/1"/>
    <trip id="44" depart="13.20" from="right5to4/5" to="1/9to0/9"/>
    <trip id="45" depart="13.50" from="3/4to4/4" to="2/8to1/8"/>
    <trip id="46" depart="13.80" from="0/5to0/4" to="0/1to1/1"/>
    <trip id="47" depart="14.10" from="3/4to3/5" to="2/9to2/8"/>
    <trip id="48" depart="14.40" from="left6to0/6" to="4/4toright4"/>
    <trip id="49" depart="14.70" from="1/2to1/1" to="3/6to2/6"/>
    <trip id="50" depart="15.00" from="3/6to3/5" to="0/6to1/6"/>
    <trip id="51" depart="15.30" from="3/1to3/0" to="1/9totop1"/>
    <trip id="52" depart="15.60" from="left7to0/7" to="1/9to0/9"/>
    <trip id="53" depart="15.90" from="right5to4/5" to="0/8toleft8"/>
    <trip id="54" depart="16.20" from="4/3to4/4" to="0/3toleft3"/>
    <trip id="55" depart="16.50" from="2/5to3/5" to="3/9to3/8"/>
    <trip id="56" depart="16.80" from="1/5to1/4" to="3/2to4/2"/>
    <trip id="57" depart="17.10" from="3/8to3/9" to="3/6to3/5"/>
    <trip id="58" depart="17.40" from="2/0to1/0" to="2/6to2/7"/>
    <trip id="59" depart="17.70" from="2/0to3/0" to="2/3to1/3"/>
    <trip id="60" depart="18.00" from="4/8to4/7" to="0/0to1/0"/>
    <trip id="61" depart="18.30" from="left1to0/1" to="0/7to1/7"/>
    <trip id="62" depart="18.60" from="0/6to0/7" to="4/8to4/9"/>
    <trip id="63" depart="18.90" from="1/3to1/4" to="1/1to1/2"/>
    <trip id="64" depart="19.20" from="1/1to1/0" to="4/6toright6"/>
    <trip id="65" depart="19.50" from="1/9to1/8" to="3/1to3/0"/>
    <trip id="66" depart="19.80" from="1/7to1/8" to="2/6to3/6"/>
    <trip id="67" depart="20.10" from="right0to4/0" to="2/6to3/6"/>
    <trip id="68" depart="20.40" from="right7to4/7" to="2/2to3/2"/>
    <trip id="69" depart="20.70" from="top4to4/9" to="2/9to2/8"/>
    <trip id="70" depart="21.00" from="1/9to2/9" to="0/4to1/4"/>
    <trip id="71" depart="21.30" from="0/9to0/8" to="4/1toright1"/>
    <trip id="72" depart="21.60" from="top2to2/9" to="3/1to3/2"/>
    <trip id="73" depart="21.90" from="2/7to3/7" to="2/9totop2"/>
    <trip id="74" depart="22.20" from="4/2to4/3" to="2/6to2/7"/>
    <trip id="75" depart="22.50" from="0/2to1/2" to="2/4to2/3"/>
    <trip id="76" depart="22.80" from="2/2to2/3" to="0/1to0/2"/>
    <trip id="77" depart="23.10" from="2/7to1/7" to="1/6to0/6"/>
    <trip id="78" depart="23.40" from="3/1to3/2" to="0/1toleft1"/>
    <trip id="79" depart="23.70" from="1/6to1/7" to="3/6to3/7"/>
    <trip id="80" depart="24.00" from="2/4to3/4" to="4/8toright8"/>
    <trip id="81" depart="24.30" from="2/5to2/4" to="0/5to0/6"/>
    <trip id="82" depart="24.60" from="bottom0to0/0" to="4/6to3/6"/>
    <trip id="83" depart="24.90" from="1/0to1/1" to="0/2to0/3"/>
    <trip id="84" depart="25.20" from="0/4to0/3" to="3/7to4/7"/>
    <trip id="85" depart="25.50" from="4/4to4/3" to="3/1to4/1"/>
    <trip id="86" depart="25.80" from="right3to4/3" to="1/8to2/8"/>
    <trip id="87" depart="26.10" from="top1to1/9" to="0/1to0/0"/>
    <trip id="88" depart="26.40" from="bottom1to1/0" to="4/6to4/5"/>
    <trip id="89" depart="26.70" from="3/1to2/1" to="0/1toleft1"/>
    <trip id="90" depart="27.00" from="3/1to2/1" to="3/9to2/9"/>
    <trip id="91" depart="27.30" from="0/3to1/3" to="3/0to4/0"/>
    <trip id="92" depart="27.60" from="bottom4to4/0" to="2/0tobottom2"/>
    <trip id="93" depart="27.90" from="1/2to1/3" to="2/8to3/8"/>
    <trip id="94" depart="28.20" from="1/7to1/6" to="0/3to0/4"/>
    <trip id="95" depart="28.50" from="2/2to2/1" to="2/5to2/4"/>
    <trip id="96" depart="28.80" from="1/2to1/3" to="0/6toleft6"/>
    <trip id="97" depart="29.10" from="right2to4/2" to="1/1to2/1"/>
    <trip id="98" depart="29.40" from="3/3to2/3" to="4/2to3/2"/>
    <trip id="99" depart="29.70" from="4/4to4/5" to="2/3to2/4"/>
    <trip id="100" depart="30.00" from="1/6to0/6" to="1/3to2/3"/>
    <trip id="101" depart="30.30" from="4/2to4/3" to="2/0to2/1"/>
    <trip id="102" depart="30.60" from="right3to4/3" to="3/3to3/4"/>
    <trip id="103" depart="30.90" from="0/8to0/9" to="1/0to0/0"/>
    <trip id="104" depart="31.20" from="1/1to1/0" to="0/1toleft1"/>
    <trip id="105" depart="31.50" from="3/7to3/6" to="2/5to2/6"/>
    <trip id="106" depart="31.80" from="2/2to1/2" to="1/6to1/5"/>
    <trip id="107" depart="32.10" from="0/2to0/1" to="0/9toleft9"/>
    <trip id="108" depart="32.40" from="bottom4to4/0" to="1/4to1/5"/>
    <trip id="109" depart="32.70" from="3/6to3/7" to="3/0to2/0"/>
    <trip id="110" depart="33.00" from="3/0to3/1" to="3/9to2/9"/>
    <trip id="111" depart="33.30" from="1/4to0/4" to="2/0to3/0"/>
    <trip id="112" depart="33.60" from="4/2to4/1" to="0/9toleft9"/>
    <trip id="113" depart="33.90" from="2/1to1/1" to="1/8to1/9"/>
    <trip id="114" depart="34.20" from="4/7to4/6" to="0/8to1/8"/>
    <trip id="115" depart="34.50" from="1/4to2/4" to="3/6to4/6"/>
    <trip id="116" depart="34.80" from="top1to1/9" to="1/2to2/2"/>
    <trip id="117" depart="35.10" from="3/6to3/5" to="0/2to0/3"/>
    <trip id="118" depart="35.40" from="top4to4/9" to="1/0to2/0"/>
    <trip id="119" depart="35.70" from="3/5to3/6" to="4/1to4/2"/>
    <trip id="120" depart="36.00" from="1/2to1/3" to="3/6to2/6"/>
    <trip id="121" depart="36.30" from="1/6to1/5" to="2/4to2/5"/>
    <trip id="122" depart="36.60" from="1/1to1/2" to="3/8to2/8"/>
    <trip id="123" depart="36.90" from="3/7to3/6" to="2/2to2/3"/>
    <trip id="124" depart="37.20" from="3/8to3/7" to="0/6to0/5"/>
    <trip id="125" depart="37.50" from="1/4to1/5" to="0/6to1/6"/>
    <trip id="126" depart="37.80" from="0/0to1/0" to="4/6to3/6"/>
    <trip id="127" depart="38.10" from="2/0to2/1" to="2/3to2/2"/>
    <trip id="128" depart="38.40" from="3/6to2/6" to="3/0to3/1"/>
    <trip id="129" depart="38.70" from="2/1to2/2" to="2/6to2/5"/>
    <trip id="130" depart="39.00" from="1/7to2/7" to="2/2to3/2"/>
    <trip id="131" depart="39.30" from="4/9to4/8" to="0/4toleft4"/>
    <trip id="132" depart="39.60" from="2/7to1/7" to="0/3to1/3"/>
    <trip id="133" depart="39.90" from="2/3to3/3" to="2/8to2/7"/>
    <trip id="134" depart="40.20" from="2/9to3/9" to="0/5toleft5"/>
    <trip id="135" depart="40.50" from="4/2to4/3" to="4/3toright3"/>
    <trip id="136" depart="40.80" from="0/8to0/7" to="0/1to0/0"/>
    <trip id="137" depart="41.10" from="2/6to1/6" to="4/4to3/4"/>
    <trip id="138" depart="41.40" from="left2to0/2" to="0/3to1/3"/>
    <trip id="139" depart="41.70" from="3/7to2/7" to="3/5to3/6"/>
    <trip id="140" depart="42.00" from="left2to0/2" to="4/9totop4"/>
    <trip id="141" depart="42.30" from="0/4to0/3" to="0/1toleft1"/>
    <trip id="142" depart="42.60" from="0/5to1/5" to="4/9totop4"/>
    <trip id="143" depart="42.90" from="4/2to4/3" to="4/7to4/6"/>
    <trip id="144" depart="43.20" from="right7to4/7" to="0/5to0/4"/>
    <trip id="145" depart="43.50" from="4/0to4/1" to="2/4to2/5"/>
    <trip id="146" depart="43.80" from="3/7to2/7" to="0/8toleft8"/>
    <trip id="147" depart="44.10" from="4/8to3/8" to="0/5to0/4"/>
    <trip id="148" depart="44.40" from="0/6to0/7" to="1/4to2/4"/>
    <trip id="149" depart="44.70" from="2/6to2/7" to="0/2to1/2"/>
    <trip id="150" depart="45.00" from="1/1to1/0" to="0/0tobottom0"/>
    <trip id="151" depart="45.30" from="3/7to2/7" to="0/7to0/8"/>
    <trip id="152" depart="45.60" from="3/6to2/6" to="3/1to3/2"/>
    <trip id="153" depart="45.90" from="right1to4/1" to="3/5to3/4"/>
    <trip id="154" depart="46.20" from="right7to4/7" to="3/5to3/6"/>
    <trip id="155" depart="46.50" from="3/9to3/8" to="1/0to2/0"/>
    <trip id="156" depart="46.80" from="3/8to3/9" to="2/0to1/0"/>
    <trip id="157" depart="47.10" from="2/4to1/4" to="4/5to4/6"/>
    <trip id="158" depart="47.40" from="3/1to2/1" to="3/8to3/7"/>
    <trip id="159" depart="47.70" from="3/8to3/7" to="4/6toright6"/>
    <trip id="160" depart="48.00" from="2/7to2/6" to="3/9to3/8"/>
    <trip id="161" depart="48.30" from="1/3to0/3" to="1/9totop1"/>
    <trip id="162" depart="48.60" from="top1to1/9" to="3/2to3/1"/>
    <trip id="163" depart="48.90" from="right8to4/8" to="2/3to1/3"/>
    <trip id="164" depart="49.20" from="4/9to3/9" to="4/8to4/7"/>
    <trip id="165" depart="49.50" from="1/0to1/1" to="0/0toleft0"/>
    <trip id="166" depart="49.80" from="3/2to4/2" to="3/5to3/4"/>
    <trip id="167" depart="50.10" from="0/5to0/4" to="0/8to1/8"/>
    <trip id="168" depart="50.40" from="3/9to3/8" to="1/9to2/9"/>
    <trip id="169" depart="50.70" from="left5to0/5" to="2/3to1/3"/>
    <trip id="170" depart="51.00" from="4/8to4/7" to="1/1to0/1"/>
    <trip id="171" depart="51.30" from="3/9to2/9" to="0/2toleft2"/>
    <trip id="172" depart="51.60" from="3/4to3/5" to="2/4to3/4"/>
    <trip id="173" depart="51.90" from="3/6to4/6" to="2/0to2/1"/>
    <trip id="174" depart="52.20" from="4/1to4/0" to="0/0tobottom0"/>
    <trip id="175" depart="52.50" from="3/4to2/4" to="4/2to4/3"/>
    <trip id="176" depart="52.80" from="0/3to0/4" to="4/4toright4"/>
    <trip id="177" depart="53.10" from="1/8to0/8" to="2/5to2/6"/>
    <trip id="178" depart="53.40" from="2/9to3/9" to="4/1to4/2"/>
    <trip id="179" depart="53.70" from="right6to4/6" to="1/4to2/4"/>
    <trip id="180" depart="54.00" from="2/4to1/4" to="0/3to1/3"/>
    <trip id="181" depart="54.30" from="1/7to0/7" to="0/8to0/7"/>
    <trip id="182" depart="54.60" from="4/3to4/4" to="0/5to0/6"/>
    <trip id="183" depart="54.90" from="1/7to1/8" to="2/8to2/7"/>
    <trip id="184" depart="55.20" from="left2to0/2" to="3/3to4/3"/>
    <trip id="185" depart="55.50" from="0/3to0/2" to="3/3to3/2"/>
    <trip id="186" depart="55.80" from="2/3to2/4" to="2/5to2/4"/>
    <trip id="187" depart="56.10" from="2/8to2/9" to="0/8toleft8"/>
    <trip id="188" depart="56.40" from="4/8to4/9" to="4/4to4/5"/>
    <trip id="189" depart="56.70" from="3/3to4/3" to="1/4to0/4"/>
    <trip id="190" depart="57.00" from="3/2to3/3" to="3/6to4/6"/>
    <trip id="191" depart="57.30" from="2/5to2/4" to="0/0toleft0"/>
    <trip id="192" depart="57.60" from="3/2to3/1" to="0/1toleft1"/>
    <trip id="193" depart="57.90" from="2/0to3/0" to="3/9to3/8"/>
    <trip id="194" depart="58.20" from="0/2to1/2" to="0/1toleft1"/>
    <trip id="195" depart="58.50" from="bottom4to4/0" to="3/9totop3"/>
    <trip id="196" depart="58.80" from="1/2to0/2" to="3/2to2/2"/>
    <trip id="197" depart="59.10" from="2/0to2/1" to="1/9to1/8"/>
    <trip id="198" depart="59.40" from="3/9to4/9" to="0/6to0/5"/>
    <trip id="199" depart="59.70" from="2/7to2/8" to="3/2to4/2"/>
    <trip id="200" depart="60.00" from="4/3to4/4" to="0/3toleft3"/>
    <trip id="201" depart="60.30" from="3/2to3/1" to="4/5to4/4"/>
    <trip id="202" depart="60.60" from="3/3to3/4" to="3/8to3/9"/>
    <trip id="203" depart="60.90" from="0/3to0/2" to="3/0to2/0"/>
    <trip id="204" depart="61.20" from="1/3to0/3" to="1/3to1/2"/>
    <trip id="205" depart="61.50" from="3/0to4/0" to="0/8to0/7"/>
    <trip id="206" depart="61.80" from="2/5to2/4" to="1/1to0/1"/>
    <trip id="207" depart="62.10" from="left9to0/9" to="0/6to0/7"/>
    <trip id="208" depart="62.40" from="1/4to1/3" to="2/5to2/4"/>
    <trip id="209" depart="62.70" from="3/0to2/0" to="1/3to0/3"/>
    <trip id="210" depart="63.00" from="1/9to2/9" to="1/5to1/6"/>
    <trip id="211" depart="63.30" from="left0to0/0" to="3/9to3/8"/>
    <trip id="212" depart="63.60" from="4/3to4/2" to="1/3to1/2"/>
    <trip id="213" depart="63.90" from="left1to0/1" to="2/4to3/4"/>
    <trip id="214" depart="64.20" from="1/0to1/1" to="4/8to4/7"/>
    <trip id="215" depart="64.50" from="2/6to1/6" to="0/6to1/6"/>
    <trip id="216" depart="64.80" from="right0to4/0" to="4/9to4/8"/>
    <trip id="217" depart="65.10" from="right0to4/0" to="3/0tobottom3"/>
    <trip id="218" depart="65.40" from="2/8to1/8" to="2/6to3/6"/>
    <trip id="219" depart="65.70" from="0/1to0/0" to="2/8to2/9"/>
    <trip id="220" depart="66.00" from="4/6to4/5" to="0/5to0/4"/>
    <trip id="221" depart="66.30" from="3/8to3/9" to="4/1to3/1"/>
    <trip id="222" depart="66.60" from="3/9to4/9" to="0/4to0/3"/>
    <trip id="223" depart="66.90" from="2/4to2/5" to="0/7to1/7"/>
    <trip id="224" depart="67.20" from="2/7to1/7" to="1/9to1/8"/>
    <trip id="225" depart="67.50" from="3/8to2/8" to="0/6to0/5"/>
    <trip id="226" depart="67.80" from="4/6to3/6" to="3/0to4/0"/>
    <trip id="227" depart="68.10" from="right6to4/6" to="1/0to1/1"/>
    <trip id="228" depart="68.40" from="3/7to3/8" to="4/8toright8"/>
    <trip id="229" depart="68.70" from="0/1to1/1" to="2/5to2/6"/>
    <trip id="230" depart="69.00" from="4/4to3/4" to="1/1to1/0"/>
    <trip id="231" depart="69.30" from="left6to0/6" to="3/0tobottom3"/>
    <trip id="232" depart="69.60" from="1/3to1/2" to="0/8toleft8"/>
    <trip id="233" depart="69.90" from="3/2to3/1" to="0/1to1/1"/>
    <trip id="234" depart="70.20" from="2/1to2/2" to="0/8toleft8"/>
    <trip id="235" depart="70.50" from="4/8to4/7" to="3/1to4/1"/>
    <trip id="236" depart="70.80" from="3/6to2/6" to="3/2to3/1"/>
    <trip id="237" depart="71.10" from="1/1to0/1" to="1/0to1/1"/>
    <trip id="238" depart="71.40" from="3/0to3/1" to="0/2toleft2"/>
    <trip id="239" depart="71.70" from="2/3to1/3" to="2/0to3/0"/>
    <trip id="240" depart="72.00" from="2/3to3/3" to="2/6to1/6"/>
    <trip id="241" depart="72.30" from="1/3to1/2" to="0/8toleft8"/>
    <trip id="242" depart="72.60" from="1/3to1/2" to="2/7to3/7"/>
    <trip id="243" depart="72.90" from="1/9to1/8" to="2/3to1/3"/>
    <trip id="244" depart="73.20" from="1/6to1/7" to="1/8to1/9"/>
    <trip id="245" depart="73.50" from="1/0to2/0" to="3/6to3/7"/>
    <trip id="246" depart="73.80" from="0/9to0/8" to="4/5to4/4"/>
    <trip id="247" depart="74.10" from="0/2to0/1" to="1/6to0/6"/>
    <trip id="248" depart="74.40" from="1/5to0/5" to="1/8to2/8"/>
    <trip id="249" depart="74.70" from="1/9to0/9" to="0/2to0/3"/>
    <trip id="250" depart="75.00" from="1/0to0/0" to="0/8to0/7"/>
    <trip id="251" depart="75.30" from="top1to1/9" to="2/2to3/2"/>
    <trip id="252" depart="75.60" from="right3to4/3" to="0/4to1/4"/>
    <trip id="253" depart="75.90" from="0/8to1/8" to="4/7toright7"/>
    <trip id="254" depart="76.20" from="4/7to4/8" to="2/5to1/5"/>
    <trip id="255" depart="76.50" from="0/4to0/3" to="4/6to4/7"/>
    <trip id="256" depart="76.80" from="0/1to1/1" to="4/0to4/1"/>
    <trip id="257" depart="77.10" from="2/6to2/7" to="4/6to3/6"/>
    <trip id="258" depart="77.40" from="right5to4/5" to="0/7to0/6"/>
    <trip id="259" depart="77.70" from="2/8to2/7" to="4/0toright0"/>
    <trip id="260" depart="78.00" from="3/4to4/4" to="3/8to3/7"/>
    <trip id="261" depart="78.30" from="1/6to1/7" to="1/7to1/6"/>
    <trip id="262" depart="78.60" from="2/4to2/3" to="1/2to0/2"/>
    <trip id="263" depart="78.90" from="2/1to2/0" to="0/9toleft9"/>
    <trip id="264" depart="79.20" from="0/7to1/7" to="2/5to3/5"/>
    <trip id="265" depart="79.50" from="3/3to2/3" to="2/9to3/9"/>
    <trip id="266" depart="79.80" from="2/2to3/2" to="1/8to0/8"/>
    <trip id="267" depart="80.10" from="1/2to1/3" to="3/1to4/1"/>
    <trip id="268" depart="80.40" from="2/6to1/6" to="2/1to3/1"/>
    <trip id="269" depart="80.70" from="4/6to4/7" to="3/6to4/6"/>
    <trip id="270" depart="81.00" from="3/8to3/7" to="1/5to1/4"/>
    <trip id="271" depart="81.30" from="1/3to2/3" to="3/9to2/9"/>
    <trip id="272" depart="81.60" from="3/6to3/7" to="4/2to3/2"/>
    <trip id="273" depart="81.90" from="1/1to1/0" to="3/2to3/3"/>
    <trip id="274" depart="82.20" from="4/7to4/6" to="1/1to1/0"/>
    <trip id="275" depart="82.50" from="left5to0/5" to="0/7to1/7"/>
    <trip id="276" depart="82.80" from="1/7to0/7" to="4/8toright8"/>
    <trip id="277" depart="83.10" from="bottom2to2/0" to="3/5to4/5"/>
    <trip id="278" depart="83.40" from="top4to4/9" to="0/1to1/1"/>
    <trip id="279" depart="83.70" from="2/5to2/6" to="2/2to2/1"/>
    <trip id="280" depart="84.00" from="2/7to2/8" to="1/9to1/8"/>
    <trip id="281" depart="84.30" from="0/4to0/5" to="0/0tobottom0"/>
    <trip id="282" depart="84.60" from="3/4to3/5" to="4/4toright4"/>
    <trip id="283" depart="84.90" from="4/0to3/0" to="0/9to0/8"/>
    <trip id="284" depart="85.20" from="4/6to3/6" to="2/2to2/1"/>
    <trip id="285" depart="85.50" from="3/1to4/1" to="4/5to3/5"/>
    <trip id="286" depart="85.80" from="3/8to3/9" to="2/8to3/8"/>
    <trip id="287" depart="86.10" from="0/3to1/3" to="2/6to2/5"/>
    <trip id="288" depart="86.40" from="2/7to3/7" to="2/4to2/3"/>
    <trip id="289" depart="86.70" from="right4to4/4" to="1/4to0/4"/>
    <trip id="290" depart="87.00" from="2/6to2/7" to="2/9to1/9"/>
    <trip id="291" depart="87.30" from="1/1to2/1" to="0/2to1/2"/>
    <trip id="292" depart="87.60" from="right4to4/4" to="1/7to1/8"/>
    <trip id="293" depart="87.90" from="bottom2to2/0" to="4/0tobottom4"/>
    <trip id="294" depart="88.20" from="4/7to4/6" to="2/6to2/7"/>
    <trip id="295" depart="88.50" from="2/0to3/0" to="0/5to1/5"/>
    <trip id="296" depart="88.80" from="2/5to2/6" to="4/5to4/6"/>
    <trip id="297" depart="89.10" from="1/1to1/2" to="2/6to2/7"/>
    <trip id="298" depart="89.40" from="2/4to2/5" to="4/3toright3"/>
    <trip id="299" depart="89.70" from="0/5to1/5" to="4/1to4/2"/>
    <trip id="300" depart="90.00" from="3/4to2/4" to="0/5to1/5"/>
    <trip id="301" depart="90.30" from="3/3to2/3" to="1/4to0/4"/>
    <trip id="302" depart="90.60" from="4/1to4/2" to="4/2to4/1"/>
    <trip id="303" depart="90.90" from="4/1to3/1" to="2/7to1/7"/>
    <trip id="304" depart="91.20" from="1/6to1/5" to="2/2to3/2"/>
    <trip id="305" depart="91.50" from="right6to4/6" to="3/8to3/9"/>
    <trip id="306" depart="91.80" from="0/4to0/5" to="3/4to3/3"/>
    <trip id="307" depart="92.10" from="left8to0/8" to="2/8to3/8"/>
    <trip id="308" depart="92.40" from="2/6to3/6" to="3/1to3/2"/>
    <trip id="309" depart="92.70" from="2/8to2/7" to="3/1to3/0"/>
    <trip id="310" depart="93.00" from="2/3to1/3" to="1/1to2/1"/>
    <trip id="311" depart="93.30" from="3/4to3/3" to="1/9to2/9"/>
    <trip id="312" depart="93.60" from="4/7to3/7" to="2/6to1/6"/>
    <trip id="313" depart="93.90" from="1/5to0/5" to="2/4to3/4"/>
    <trip id="314" depart="94.20" from="0/7to0/8" to="0/8to0/7"/>
    <trip id="315" depart="94.50" from="right3to4/3" to="3/3to4/3"/>
    <trip id="316" depart="94.80" from="1/5to1/6" to="1/8to1/7"/>
    <trip id="317" depart="95.10" from="2/4to2/3" to="2/4to2/3"/>
    <trip id="318" depart="95.40" from="2/8to2/7" to="2/4to2/3"/>
    <trip id="319" depart="95.70" from="0/6to1/6" to="0/0to1/0"/>
    <trip id="320" depart="96.00" from="right3to4/3" to="2/3to2/2"/>
    <trip id="321" depart="96.30" from="2/9to3/9" to="1/2to1/3"/>
    <trip id="322" depart="96.60" from="2/9to3/9" to="4/3to4/4"/>
    <trip id="323" depart="96.90" from="1/9to2/9" to="1/1to1/2"/>
    <trip id="324" depart="97.20" from="0/3to0/2" to="4/3to3/3"/>
    <trip id="325" depart="97.50" from="3/4to3/5" to="1/6to1/7"/>
    <trip id="326" depart="97.80" from="0/2to1/2" to="0/6to1/6"/>
    <trip id="327" depart="98.10" from="2/9to3/9" to="4/4to4/3"/>
    <trip id="328" depart="98.40" from="1/9to0/9" to="3/8to4/8"/>
    <trip id="329" depart="98.70" from="4/1to3/1" to="3/4to2/4"/>
    <trip id="330" depart="99.00" from="2/4to3/4" to="1/1to0/1"/>
    <trip id="331" depart="99.30" from="2/5to1/5" to="4/4to4/3"/>
    <trip id="332" depart="99.60" from="0/3to1/3" to="1/1to0/1"/>
    <trip id="333" depart="99.90" from="2/5to2/6" to="4/5to4/6"/>
</routes>
