<?xml version="1.0" encoding="UTF-8"?>

<!-- generated on Mon Jul 31 10:30:29 2017 by SUMO duarouter Version 0.30.0
<?xml version="1.0" encoding="UTF-8"?>

<configuration xmlns:xsi="http://www.w3.org/2001/XMLSchema-instance" xsi:noNamespaceSchemaLocation="http://sumo.dlr.de/xsd/duarouterConfiguration.xsd">

    <input>
        <net-file value="grid.net.xml"/>
        <trip-files value="grid-0p3/grid-0p3.trips.xml"/>
    </input>

    <output>
        <output-file value="grid-0p3/grid-0p3.rou.xml"/>
    </output>

    <processing>
        <ignore-errors value="true"/>
    </processing>

    <time>
        <begin value="0"/>
        <end value="100.0"/>
    </time>

    <report>
        <no-warnings value="true"/>
        <no-step-log value="true"/>
    </report>

</configuration>
-->

<routes xmlns:xsi="http://www.w3.org/2001/XMLSchema-instance" xsi:noNamespaceSchemaLocation="http://sumo.dlr.de/xsd/routes_file.xsd">
    <vehicle id="0" depart="0.00">
        <route edges="4/8to4/7 4/7to4/6 4/6to4/5 4/5to4/4 4/4to4/3 4/3to3/3 3/3to2/3 2/3to2/2 2/2to1/2 1/2to0/2 0/2toleft2"/>
    </vehicle>
    <vehicle id="1" depart="0.30">
        <route edges="left1to0/1 0/1to0/2 0/2to0/3 0/3to0/4 0/4to0/5 0/5to1/5 1/5to2/5 2/5to2/6 2/6to2/7 2/7to1/7"/>
    </vehicle>
    <vehicle id="2" depart="0.60">
        <route edges="top3to3/9 3/9to3/8 3/8to3/7 3/7to3/6 3/6to3/5 3/5to4/5"/>
    </vehicle>
    <vehicle id="3" depart="0.90">
        <route edges="0/8to0/7 0/7to1/7 1/7to1/8"/>
    </vehicle>
    <vehicle id="4" depart="1.20">
        <route edges="2/0to3/0 3/0to3/1 3/1to2/1 2/1to2/0 2/0to1/0 1/0to1/1"/>
    </vehicle>
    <vehicle id="5" depart="1.50">
        <route edges="0/6to0/7 0/7to1/7 1/7to2/7 2/7to3/7 3/7to4/7 4/7to4/8"/>
    </vehicle>
    <vehicle id="6" depart="1.80">
        <route edges="3/8to2/8 2/8to2/7 2/7to2/6 2/6to2/5 2/5to2/4 2/4to2/3 2/3to1/3"/>
    </vehicle>
    <vehicle id="7" depart="2.10">
        <route edges="2/5to3/5 3/5to3/4 3/4to3/3 3/3to2/3 2/3to1/3 1/3to0/3 0/3to0/4 0/4to1/4"/>
    </vehicle>
    <vehicle id="8" depart="2.40">
        <route edges="3/3to4/3 4/3to4/2 4/2to4/1 4/1to3/1 3/1to3/2"/>
    </vehicle>
    <vehicle id="9" depart="2.70">
        <route edges="1/0to0/0 0/0to0/1 0/1to0/2 0/2to0/3 0/3to0/4 0/4to0/5 0/5to1/5 1/5to1/6 1/6to1/7 1/7to1/8 1/8to1/9 1/9to2/9 2/9to2/8"/>
    </vehicle>
    <vehicle id="10" depart="3.00">
        <route edges="1/0to0/0 0/0to0/1 0/1to0/2 0/2to0/3 0/3to0/4 0/4to0/5 0/5to1/5 1/5to1/6 1/6to1/7 1/7to1/8 1/8to1/9 1/9to0/9"/>
    </vehicle>
    <vehicle id="11" depart="3.30">
        <route edges="bottom3to3/0 3/0to3/1 3/1to3/2 3/2to3/3 3/3to3/4 3/4to3/5 3/5to3/6 3/6to3/7 3/7to2/7 2/7to1/7 1/7to1/8"/>
    </vehicle>
    <vehicle id="12" depart="3.60">
        <route edges="2/5to3/5 3/5to3/4 3/4to2/4 2/4to1/4 1/4to1/5 1/5to0/5 0/5to0/6 0/6to1/6"/>
    </vehicle>
    <vehicle id="13" depart="3.90">
        <route edges="0/1to0/2 0/2to0/3 0/3to1/3 1/3to2/3"/>
    </vehicle>
    <vehicle id="14" depart="4.20">
        <route edges="3/7to3/6 3/6to2/6 2/6to2/7 2/7to2/8 2/8to1/8 1/8to1/9 1/9to2/9"/>
    </vehicle>
    <vehicle id="15" depart="4.50">
        <route edges="3/1to3/2 3/2to3/3 3/3to3/4 3/4to2/4 2/4to1/4 1/4to0/4 0/4to0/5"/>
    </vehicle>
    <vehicle id="16" depart="4.80">
        <route edges="1/7to1/6 1/6to1/5 1/5to1/4 1/4to1/3 1/3to1/2 1/2to1/1 1/1to1/0 1/0to2/0 2/0to3/0 3/0to3/1"/>
    </vehicle>
    <vehicle id="17" depart="5.10">
        <route edges="3/6to4/6 4/6to4/7 4/7to4/8 4/8to4/9 4/9to3/9 3/9to2/9 2/9to1/9"/>
    </vehicle>
    <vehicle id="18" depart="5.40">
        <route edges="3/3to3/4 3/4to3/5 3/5to3/6"/>
    </vehicle>
    <vehicle id="19" depart="5.70">
        <route edges="4/2to4/1 4/1to3/1 3/1to3/2 3/2to3/3 3/3to3/4 3/4to2/4 2/4to1/4 1/4to1/5 1/5to2/5"/>
    </vehicle>
    <vehicle id="20" depart="6.00">
        <route edges="2/6to1/6 1/6to1/5 1/5to2/5"/>
    </vehicle>
    <vehicle id="21" depart="6.30">
        <route edges="2/9to1/9 1/9to1/8 1/8to1/7 1/7to1/6 1/6to2/6 2/6to3/6 3/6to4/6"/>
    </vehicle>
    <vehicle id="22" depart="6.60">
        <route edges="2/8to1/8 1/8to1/7 1/7to1/6 1/6to1/5 1/5to1/4 1/4to1/3 1/3to2/3 2/3to2/2 2/2to3/2 3/2to4/2 4/2to4/1 4/1to3/1"/>
    </vehicle>
    <vehicle id="23" depart="6.90">
        <route edges="3/5to3/6 3/6to2/6 2/6to2/5 2/5to2/4 2/4to2/3 2/3to2/2 2/2to2/1 2/1to2/0 2/0to3/0 3/0to3/1"/>
    </vehicle>
    <vehicle id="24" depart="7.20">
        <route edges="1/7to0/7 0/7to0/8 0/8to1/8 1/8to2/8 2/8to3/8 3/8to4/8 4/8toright8"/>
    </vehicle>
    <vehicle id="25" depart="7.50">
        <route edges="1/2to2/2 2/2to2/1 2/1to1/1 1/1to1/2 1/2to1/3"/>
    </vehicle>
    <vehicle id="26" depart="7.80">
        <route edges="1/0to2/0 2/0to2/1 2/1to2/2 2/2to2/3 2/3to2/4 2/4to2/5 2/5to3/5 3/5to3/6 3/6to3/7 3/7to4/7 4/7to4/6"/>
    </vehicle>
    <vehicle id="27" depart="8.10">
        <route edges="3/4to3/3 3/3to2/3 2/3to2/4 2/4to2/5 2/5to2/6 2/6to3/6"/>
    </vehicle>
    <vehicle id="28" depart="8.40">
        <route edges="0/7to1/7 1/7to2/7 2/7to3/7 3/7to3/6 3/6to4/6 4/6to4/5 4/5to3/5"/>
    </vehicle>
    <vehicle id="29" depart="8.70">
        <route edges="1/9to1/8 1/8to1/7 1/7to1/6 1/6to1/5 1/5to0/5"/>
    </vehicle>
    <vehicle id="30" depart="9.00">
        <route edges="0/1to1/1 1/1to2/1 2/1to3/1"/>
    </vehicle>
    <vehicle id="31" depart="9.30">
        <route edges="4/1to4/0 4/0to3/0 3/0to3/1 3/1to3/2 3/2to3/3 3/3to3/4 3/4to4/4 4/4to4/5 4/5to4/6"/>
    </vehicle>
    <vehicle id="32" depart="9.60">
        <route edges="4/4to4/3 4/3to3/3 3/3to2/3 2/3to1/3 1/3to0/3 0/3to0/2"/>
    </vehicle>
    <vehicle id="33" depart="9.90">
        <route edges="2/1to3/1 3/1to3/2 3/2to3/3 3/3to3/4 3/4to3/5 3/5to3/6 3/6to3/7 3/7to3/8 3/8to3/9 3/9to4/9 4/9to4/8"/>
    </vehicle>
    <vehicle id="34" depart="10.20">
        <route edges="1/2to1/1 1/1to2/1 2/1to2/2 2/2to2/3 2/3to3/3 3/3to4/3 4/3to4/4"/>
    </vehicle>
    <vehicle id="35" depart="10.50">
        <route edges="4/8to4/7 4/7to4/6 4/6to4/5 4/5to4/4 4/4to4/3 4/3to4/2 4/2to4/1"/>
    </vehicle>
    <vehicle id="36" depart="10.80">
        <route edges="1/2to2/2 2/2to2/3 2/3to2/4 2/4to2/5 2/5to1/5 1/5to1/6 1/6to2/6"/>
    </vehicle>
    <vehicle id="37" depart="11.10">
        <route edges="1/9to2/9 2/9to2/8 2/8to2/7 2/7to2/6 2/6to2/5 2/5to2/4 2/4to3/4 3/4to3/3 3/3to3/2 3/2to4/2 4/2to4/3"/>
    </vehicle>
    <vehicle id="38" depart="11.40">
        <route edges="4/0to3/0 3/0to3/1 3/1to3/2 3/2to3/3 3/3to3/4 3/4to3/5 3/5to2/5 2/5to1/5 1/5to0/5 0/5to0/6 0/6to1/6"/>
    </vehicle>
    <vehicle id="39" depart="11.70">
        <route edges="left6to0/6 0/6to0/7 0/7to1/7 1/7to2/7 2/7to3/7 3/7to3/6"/>
    </vehicle>
    <vehicle id="40" depart="12.00">
        <route edges="3/7to3/6 3/6to3/5 3/5to3/4 3/4to3/3 3/3to3/2 3/2to2/2 2/2to1/2 1/2to1/1 1/1to1/0 1/0to0/0 0/0toleft0"/>
    </vehicle>
    <vehicle id="41" depart="12.30">
        <route edges="top0to0/9 0/9to0/8 0/8to0/7 0/7to0/6 0/6to0/5 0/5to1/5 1/5to2/5 2/5to3/5 3/5to4/5 4/5to4/4 4/4to3/4"/>
    </vehicle>
    <vehicle id="42" depart="12.60">
        <route edges="2/3to3/3 3/3to3/4 3/4to3/5 3/5to3/6 3/6to3/7 3/7to2/7 2/7to1/7"/>
    </vehicle>
    <vehicle id="43" depart="12.90">
        <route edges="0/2to0/1 0/1to0/0 0/0to1/0 1/0to2/0 2/0to2/1"/>
    </vehicle>
    <vehicle id="44" depart="13.20">
        <route edges="right5to4/5 4/5to4/6 4/6to4/7 4/7to4/8 4/8to4/9 4/9to3/9 3/9to2/9 2/9to1/9 1/9to0/9"/>
    </vehicle>
    <vehicle id="45" depart="13.50">
        <route edges="3/4to4/4 4/4to4/5 4/5to4/6 4/6to4/7 4/7to4/8 4/8to3/8 3/8to2/8 2/8to1/8"/>
    </vehicle>
    <vehicle id="46" depart="13.80">
        <route edges="0/5to0/4 0/4to0/3 0/3to0/2 0/2to0/1 0/1to1/1"/>
    </vehicle>
    <vehicle id="47" depart="14.10">
        <route edges="3/4to3/5 3/5to3/6 3/6to3/7 3/7to3/8 3/8to3/9 3/9to2/9 2/9to2/8"/>
    </vehicle>
    <vehicle id="48" depart="14.40">
        <route edges="left6to0/6 0/6to0/5 0/5to0/4 0/4to1/4 1/4to2/4 2/4to3/4 3/4to4/4 4/4toright4"/>
    </vehicle>
    <vehicle id="49" depart="14.70">
        <route edges="1/2to1/1 1/1to2/1 2/1to2/2 2/2to2/3 2/3to2/4 2/4to2/5 2/5to3/5 3/5to3/6 3/6to2/6"/>
    </vehicle>
    <vehicle id="50" depart="15.00">
        <route edges="3/6to3/5 3/5to2/5 2/5to1/5 1/5to0/5 0/5to0/6 0/6to1/6"/>
    </vehicle>
    <vehicle id="51" depart="15.30">
        <route edges="3/1to3/0 3/0to2/0 2/0to2/1 2/1to2/2 2/2to2/3 2/3to2/4 2/4to1/4 1/4to1/5 1/5to1/6 1/6to1/7 1/7to1/8 1/8to1/9 1/9totop1"/>
    </vehicle>
    <vehicle id="52" depart="15.60">
        <route edges="left7to0/7 0/7to0/8 0/8to1/8 1/8to1/9 1/9to0/9"/>
    </vehicle>
    <vehicle id="53" depart="15.90">
        <route edges="right5to4/5 4/5to4/6 4/6to4/7 4/7to4/8 4/8to3/8 3/8to2/8 2/8to1/8 1/8to0/8 0/8toleft8"/>
    </vehicle>
    <vehicle id="54" depart="16.20">
        <route edges="4/3to4/4 4/4to3/4 3/4to3/3 3/3to2/3 2/3to1/3 1/3to0/3 0/3toleft3"/>
    </vehicle>
    <vehicle id="55" depart="16.50">
        <route edges="2/5to3/5 3/5to3/6 3/6to3/7 3/7to3/8 3/8to2/8 2/8to2/9 2/9to3/9 3/9to3/8"/>
    </vehicle>
    <vehicle id="56" depart="16.80">
        <route edges="1/5to1/4 1/4to1/3 1/3to1/2 1/2to2/2 2/2to3/2 3/2to4/2"/>
    </vehicle>
    <vehicle id="57" depart="17.10">
        <route edges="3/8to3/9 3/9to2/9 2/9to2/8 2/8to2/7 2/7to2/6 2/6to3/6 3/6to3/5"/>
    </vehicle>
    <vehicle id="58" depart="17.40">
        <route edges="2/0to1/0 1/0to1/1 1/1to1/2 1/2to1/3 1/3to1/4 1/4to1/5 1/5to2/5 2/5to2/6 2/6to2/7"/>
    </vehicle>
    <vehicle id="59" depart="17.70">
        <route edges="2/0to3/0 3/0to3/1 3/1to3/2 3/2to3/3 3/3to2/3 2/3to1/3"/>
    </vehicle>
    <vehicle id="60" depart="18.00">
        <route edges="4/8to4/7 4/7to4/6 4/6to4/5 4/5to4/4 4/4to4/3 4/3to3/3 3/3to2/3 2/3to2/2 2/2to2/1 2/1to1/1 1/1to0/1 0/1to0/0 0/0to1/0"/>
    </vehicle>
    <vehicle id="61" depart="18.30">
        <route edges="left1to0/1 0/1to0/2 0/2to0/3 0/3to0/4 0/4to0/5 0/5to0/6 0/6to0/7 0/7to1/7"/>
    </vehicle>
    <vehicle id="62" depart="18.60">
        <route edges="0/6to0/7 0/7to0/8 0/8to1/8 1/8to2/8 2/8to3/8 3/8to4/8 4/8to4/9"/>
    </vehicle>
    <vehicle id="63" depart="18.90">
        <route edges="1/3to1/4 1/4to0/4 0/4to0/3 0/3to0/2 0/2to0/1 0/1to1/1 1/1to1/2"/>
    </vehicle>
    <vehicle id="64" depart="19.20">
        <route edges="1/1to1/0 1/0to2/0 2/0to2/1 2/1to2/2 2/2to2/3 2/3to2/4 2/4to3/4 3/4to3/5 3/5to3/6 3/6to4/6 4/6toright6"/>
    </vehicle>
    <vehicle id="65" depart="19.50">
        <route edges="1/9to1/8 1/8to1/7 1/7to1/6 1/6to1/5 1/5to1/4 1/4to1/3 1/3to1/2 1/2to1/1 1/1to2/1 2/1to3/1 3/1to3/0"/>
    </vehicle>
    <vehicle id="66" depart="19.80">
        <route edges="1/7to1/8 1/8to2/8 2/8to2/7 2/7to2/6 2/6to3/6"/>
    </vehicle>
    <vehicle id="67" depart="20.10">
        <route edges="right0to4/0 4/0to4/1 4/1to4/2 4/2to4/3 4/3to4/4 4/4to3/4 3/4to2/4 2/4to2/5 2/5to2/6 2/6to3/6"/>
    </vehicle>
    <vehicle id="68" depart="20.40">
        <route edges="right7to4/7 4/7to4/6 4/6to4/5 4/5to4/4 4/4to4/3 4/3to3/3 3/3to2/3 2/3to2/2 2/2to3/2"/>
    </vehicle>
    <vehicle id="69" depart="20.70">
        <route edges="top4to4/9 4/9to3/9 3/9to2/9 2/9to2/8"/>
    </vehicle>
    <vehicle id="70" depart="21.00">
        <route edges="1/9to2/9 2/9to2/8 2/8to2/7 2/7to2/6 2/6to2/5 2/5to1/5 1/5to0/5 0/5to0/4 0/4to1/4"/>
    </vehicle>
    <vehicle id="71" depart="21.30">
        <route edges="0/9to0/8 0/8to0/7 0/7to0/6 0/6to0/5 0/5to0/4 0/4to0/3 0/3to0/2 0/2to0/1 0/1to1/1 1/1to2/1 2/1to3/1 3/1to4/1 4/1toright1"/>
    </vehicle>
    <vehicle id="72" depart="21.60">
        <route edges="top2to2/9 2/9to2/8 2/8to2/7 2/7to2/6 2/6to2/5 2/5to2/4 2/4to2/3 2/3to2/2 2/2to2/1 2/1to3/1 3/1to3/2"/>
    </vehicle>
    <vehicle id="73" depart="21.90">
        <route edges="2/7to3/7 3/7to3/8 3/8to3/9 3/9to2/9 2/9totop2"/>
    </vehicle>
    <vehicle id="74" depart="22.20">
        <route edges="4/2to4/3 4/3to4/4 4/4to4/5 4/5to4/6 4/6to3/6 3/6to2/6 2/6to2/7"/>
    </vehicle>
    <vehicle id="75" depart="22.50">
        <route edges="0/2to1/2 1/2to1/3 1/3to1/4 1/4to2/4 2/4to2/3"/>
    </vehicle>
    <vehicle id="76" depart="22.80">
        <route edges="2/2to2/3 2/3to1/3 1/3to1/2 1/2to1/1 1/1to0/1 0/1to0/2"/>
    </vehicle>
    <vehicle id="77" depart="23.10">
        <route edges="2/7to1/7 1/7to1/6 1/6to0/6"/>
    </vehicle>
    <vehicle id="78" depart="23.40">
        <route edges="3/1to3/2 3/2to2/2 2/2to2/1 2/1to1/1 1/1to0/1 0/1toleft1"/>
    </vehicle>
    <vehicle id="79" depart="23.70">
        <route edges="1/6to1/7 1/7to2/7 2/7to2/6 2/6to3/6 3/6to3/7"/>
    </vehicle>
    <vehicle id="80" depart="24.00">
        <route edges="2/4to3/4 3/4to3/5 3/5to3/6 3/6to3/7 3/7to3/8 3/8to4/8 4/8toright8"/>
    </vehicle>
    <vehicle id="81" depart="24.30">
        <route edges="2/5to2/4 2/4to1/4 1/4to1/5 1/5to0/5 0/5to0/6"/>
    </vehicle>
    <vehicle id="82" depart="24.60">
        <route edges="bottom0to0/0 0/0to0/1 0/1to0/2 0/2to0/3 0/3to0/4 0/4to1/4 1/4to2/4 2/4to2/5 2/5to3/5 3/5to4/5 4/5to4/6 4/6to3/6"/>
    </vehicle>
    <vehicle id="83" depart="24.90">
        <route edges="1/0to1/1 1/1to1/2 1/2to0/2 0/2to0/3"/>
    </vehicle>
    <vehicle id="84" depart="25.20">
        <route edges="0/4to0/3 0/3to1/3 1/3to1/4 1/4to1/5 1/5to1/6 1/6to1/7 1/7to2/7 2/7to3/7 3/7to4/7"/>
    </vehicle>
    <vehicle id="85" depart="25.50">
        <route edges="4/4to4/3 4/3to4/2 4/2to3/2 3/2to3/1 3/1to4/1"/>
    </vehicle>
    <vehicle id="86" depart="25.80">
        <route edges="right3to4/3 4/3to4/4 4/4to4/5 4/5to4/6 4/6to4/7 4/7to3/7 3/7to2/7 2/7to1/7 1/7to1/8 1/8to2/8"/>
    </vehicle>
    <vehicle id="87" depart="26.10">
        <route edges="top1to1/9 1/9to1/8 1/8to1/7 1/7to1/6 1/6to1/5 1/5to1/4 1/4to1/3 1/3to1/2 1/2to0/2 0/2to0/1 0/1to0/0"/>
    </vehicle>
    <vehicle id="88" depart="26.40">
        <route edges="bottom1to1/0 1/0to1/1 1/1to1/2 1/2to1/3 1/3to1/4 1/4to2/4 2/4to3/4 3/4to3/5 3/5to3/6 3/6to4/6 4/6to4/5"/>
    </vehicle>
    <vehicle id="89" depart="26.70">
        <route edges="3/1to2/1 2/1to1/1 1/1to0/1 0/1toleft1"/>
    </vehicle>
    <vehicle id="90" depart="27.00">
        <route edges="3/1to2/1 2/1to2/2 2/2to2/3 2/3to2/4 2/4to2/5 2/5to2/6 2/6to3/6 3/6to3/7 3/7to3/8 3/8to3/9 3/9to2/9"/>
    </vehicle>
    <vehicle id="91" depart="27.30">
        <route edges="0/3to1/3 1/3to1/2 1/2to1/1 1/1to1/0 1/0to2/0 2/0to3/0 3/0to4/0"/>
    </vehicle>
    <vehicle id="92" depart="27.60">
        <route edges="bottom4to4/0 4/0to3/0 3/0to2/0 2/0tobottom2"/>
    </vehicle>
    <vehicle id="93" depart="27.90">
        <route edges="1/2to1/3 1/3to1/4 1/4to1/5 1/5to1/6 1/6to1/7 1/7to1/8 1/8to2/8 2/8to3/8"/>
    </vehicle>
    <vehicle id="94" depart="28.20">
        <route edges="1/7to1/6 1/6to1/5 1/5to1/4 1/4to1/3 1/3to0/3 0/3to0/4"/>
    </vehicle>
    <vehicle id="95" depart="28.50">
        <route edges="2/2to2/1 2/1to1/1 1/1to1/2 1/2to1/3 1/3to1/4 1/4to1/5 1/5to2/5 2/5to2/4"/>
    </vehicle>
    <vehicle id="96" depart="28.80">
        <route edges="1/2to1/3 1/3to1/4 1/4to1/5 1/5to1/6 1/6to0/6 0/6toleft6"/>
    </vehicle>
    <vehicle id="97" depart="29.10">
        <route edges="right2to4/2 4/2to3/2 3/2to2/2 2/2to1/2 1/2to1/1 1/1to2/1"/>
    </vehicle>
    <vehicle id="98" depart="29.40">
        <route edges="3/3to2/3 2/3to2/2 2/2to2/1 2/1to3/1 3/1to4/1 4/1to4/2 4/2to3/2"/>
    </vehicle>
    <vehicle id="99" depart="29.70">
        <route edges="4/4to4/5 4/5to3/5 3/5to3/4 3/4to3/3 3/3to2/3 2/3to2/4"/>
    </vehicle>
    <vehicle id="100" depart="30.00">
        <route edges="1/6to0/6 0/6to0/5 0/5to0/4 0/4to0/3 0/3to1/3 1/3to2/3"/>
    </vehicle>
    <vehicle id="101" depart="30.30">
        <route edges="4/2to4/3 4/3to3/3 3/3to3/2 3/2to3/1 3/1to3/0 3/0to2/0 2/0to2/1"/>
    </vehicle>
    <vehicle id="102" depart="30.60">
        <route edges="right3to4/3 4/3to3/3 3/3to3/4"/>
    </vehicle>
    <vehicle id="103" depart="30.90">
        <route edges="0/8to0/9 0/9to1/9 1/9to1/8 1/8to1/7 1/7to1/6 1/6to1/5 1/5to1/4 1/4to1/3 1/3to1/2 1/2to1/1 1/1to1/0 1/0to0/0"/>
    </vehicle>
    <vehicle id="104" depart="31.20">
        <route edges="1/1to1/0 1/0to0/0 0/0to0/1 0/1toleft1"/>
    </vehicle>
    <vehicle id="105" depart="31.50">
        <route edges="3/7to3/6 3/6to3/5 3/5to2/5 2/5to2/6"/>
    </vehicle>
    <vehicle id="106" depart="31.80">
        <route edges="2/2to1/2 1/2to1/3 1/3to1/4 1/4to1/5 1/5to0/5 0/5to0/6 0/6to1/6 1/6to1/5"/>
    </vehicle>
    <vehicle id="107" depart="32.10">
        <route edges="0/2to0/1 0/1to1/1 1/1to1/2 1/2to1/3 1/3to1/4 1/4to1/5 1/5to0/5 0/5to0/6 0/6to0/7 0/7to0/8 0/8to0/9 0/9toleft9"/>
    </vehicle>
    <vehicle id="108" depart="32.40">
        <route edges="bottom4to4/0 4/0to4/1 4/1to4/2 4/2to4/3 4/3to4/4 4/4to3/4 3/4to2/4 2/4to1/4 1/4to1/5"/>
    </vehicle>
    <vehicle id="109" depart="32.70">
        <route edges="3/6to3/7 3/7to2/7 2/7to2/6 2/6to2/5 2/5to2/4 2/4to2/3 2/3to3/3 3/3to3/2 3/2to3/1 3/1to3/0 3/0to2/0"/>
    </vehicle>
    <vehicle id="110" depart="33.00">
        <route edges="3/0to3/1 3/1to3/2 3/2to3/3 3/3to3/4 3/4to3/5 3/5to3/6 3/6to3/7 3/7to3/8 3/8to3/9 3/9to2/9"/>
    </vehicle>
    <vehicle id="111" depart="33.30">
        <route edges="1/4to0/4 0/4to0/3 0/3to0/2 0/2to0/1 0/1to0/0 0/0to1/0 1/0to2/0 2/0to3/0"/>
    </vehicle>
    <vehicle id="112" depart="33.60">
        <route edges="4/2to4/1 4/1to3/1 3/1to3/2 3/2to3/3 3/3to3/4 3/4to3/5 3/5to2/5 2/5to2/6 2/6to2/7 2/7to2/8 2/8to2/9 2/9to1/9 1/9to0/9 0/9toleft9"/>
    </vehicle>
    <vehicle id="113" depart="33.90">
        <route edges="2/1to1/1 1/1to1/2 1/2to1/3 1/3to1/4 1/4to1/5 1/5to1/6 1/6to1/7 1/7to1/8 1/8to1/9"/>
    </vehicle>
    <vehicle id="114" depart="34.20">
        <route edges="4/7to4/6 4/6to3/6 3/6to3/7 3/7to2/7 2/7to1/7 1/7to0/7 0/7to0/8 0/8to1/8"/>
    </vehicle>
    <vehicle id="115" depart="34.50">
        <route edges="1/4to2/4 2/4to2/5 2/5to2/6 2/6to3/6 3/6to4/6"/>
    </vehicle>
    <vehicle id="116" depart="34.80">
        <route edges="top1to1/9 1/9to1/8 1/8to1/7 1/7to1/6 1/6to1/5 1/5to1/4 1/4to1/3 1/3to1/2 1/2to2/2"/>
    </vehicle>
    <vehicle id="117" depart="35.10">
        <route edges="3/6to3/5 3/5to3/4 3/4to3/3 3/3to3/2 3/2to2/2 2/2to1/2 1/2to0/2 0/2to0/3"/>
    </vehicle>
    <vehicle id="118" depart="35.40">
        <route edges="top4to4/9 4/9to4/8 4/8to4/7 4/7to4/6 4/6to4/5 4/5to4/4 4/4to4/3 4/3to4/2 4/2to3/2 3/2to3/1 3/1to2/1 2/1to1/1 1/1to1/0 1/0to2/0"/>
    </vehicle>
    <vehicle id="119" depart="35.70">
        <route edges="3/5to3/6 3/6to2/6 2/6to2/5 2/5to2/4 2/4to2/3 2/3to2/2 2/2to3/2 3/2to3/1 3/1to4/1 4/1to4/2"/>
    </vehicle>
    <vehicle id="120" depart="36.00">
        <route edges="1/2to1/3 1/3to1/4 1/4to1/5 1/5to2/5 2/5to3/5 3/5to3/6 3/6to2/6"/>
    </vehicle>
    <vehicle id="121" depart="36.30">
        <route edges="1/6to1/5 1/5to1/4 1/4to2/4 2/4to2/5"/>
    </vehicle>
    <vehicle id="122" depart="36.60">
        <route edges="1/1to1/2 1/2to1/3 1/3to1/4 1/4to1/5 1/5to1/6 1/6to2/6 2/6to3/6 3/6to3/7 3/7to3/8 3/8to2/8"/>
    </vehicle>
    <vehicle id="123" depart="36.90">
        <route edges="3/7to3/6 3/6to3/5 3/5to3/4 3/4to3/3 3/3to3/2 3/2to2/2 2/2to2/3"/>
    </vehicle>
    <vehicle id="124" depart="37.20">
        <route edges="3/8to3/7 3/7to3/6 3/6to2/6 2/6to1/6 1/6to0/6 0/6to0/5"/>
    </vehicle>
    <vehicle id="125" depart="37.50">
        <route edges="1/4to1/5 1/5to0/5 0/5to0/6 0/6to1/6"/>
    </vehicle>
    <vehicle id="126" depart="37.80">
        <route edges="0/0to1/0 1/0to1/1 1/1to1/2 1/2to1/3 1/3to1/4 1/4to1/5 1/5to2/5 2/5to3/5 3/5to4/5 4/5to4/6 4/6to3/6"/>
    </vehicle>
    <vehicle id="127" depart="38.10">
        <route edges="2/0to2/1 2/1to2/2 2/2to1/2 1/2to1/3 1/3to2/3 2/3to2/2"/>
    </vehicle>
    <vehicle id="128" depart="38.40">
        <route edges="3/6to2/6 2/6to2/5 2/5to2/4 2/4to2/3 2/3to2/2 2/2to2/1 2/1to2/0 2/0to3/0 3/0to3/1"/>
    </vehicle>
    <vehicle id="129" depart="38.70">
        <route edges="2/1to2/2 2/2to2/3 2/3to2/4 2/4to2/5 2/5to1/5 1/5to1/6 1/6to2/6 2/6to2/5"/>
    </vehicle>
    <vehicle id="130" depart="39.00">
        <route edges="1/7to2/7 2/7to2/6 2/6to2/5 2/5to2/4 2/4to2/3 2/3to2/2 2/2to3/2"/>
    </vehicle>
    <vehicle id="131" depart="39.30">
        <route edges="4/9to4/8 4/8to4/7 4/7to4/6 4/6to4/5 4/5to4/4 4/4to3/4 3/4to2/4 2/4to1/4 1/4to0/4 0/4toleft4"/>
    </vehicle>
    <vehicle id="132" depart="39.60">
        <route edges="2/7to1/7 1/7to1/6 1/6to1/5 1/5to1/4 1/4to0/4 0/4to0/3 0/3to1/3"/>
    </vehicle>
    <vehicle id="133" depart="39.90">
        <route edges="2/3to3/3 3/3to3/4 3/4to3/5 3/5to3/6 3/6to3/7 3/7to3/8 3/8to2/8 2/8to2/7"/>
    </vehicle>
    <vehicle id="134" depart="40.20">
        <route edges="2/9to3/9 3/9to3/8 3/8to3/7 3/7to3/6 3/6to3/5 3/5to2/5 2/5to1/5 1/5to0/5 0/5toleft5"/>
    </vehicle>
    <vehicle id="135" depart="40.50">
        <route edges="4/2to4/3 4/3toright3"/>
    </vehicle>
    <vehicle id="136" depart="40.80">
        <route edges="0/8to0/7 0/7to0/6 0/6to0/5 0/5to0/4 0/4to0/3 0/3to0/2 0/2to0/1 0/1to0/0"/>
    </vehicle>
    <vehicle id="137" depart="41.10">
        <route edges="2/6to1/6 1/6to1/5 1/5to2/5 2/5to3/5 3/5to4/5 4/5to4/4 4/4to3/4"/>
    </vehicle>
    <vehicle id="138" depart="41.40">
        <route edges="left2to0/2 0/2to0/3 0/3to1/3"/>
    </vehicle>
    <vehicle id="139" depart="41.70">
        <route edges="3/7to2/7 2/7to2/6 2/6to2/5 2/5to3/5 3/5to3/6"/>
    </vehicle>
    <vehicle id="140" depart="42.00">
        <route edges="left2to0/2 0/2to0/3 0/3to0/4 0/4to0/5 0/5to0/6 0/6to0/7 0/7to0/8 0/8to0/9 0/9to1/9 1/9to2/9 2/9to3/9 3/9to4/9 4/9totop4"/>
    </vehicle>
    <vehicle id="141" depart="42.30">
        <route edges="0/4to0/3 0/3to0/2 0/2to0/1 0/1toleft1"/>
    </vehicle>
    <vehicle id="142" depart="42.60">
        <route edges="0/5to1/5 1/5to1/6 1/6to1/7 1/7to1/8 1/8to1/9 1/9to2/9 2/9to3/9 3/9to4/9 4/9totop4"/>
    </vehicle>
    <vehicle id="143" depart="42.90">
        <route edges="4/2to4/3 4/3to4/4 4/4to4/5 4/5to4/6 4/6to3/6 3/6to3/7 3/7to4/7 4/7to4/6"/>
    </vehicle>
    <vehicle id="144" depart="43.20">
        <route edges="right7to4/7 4/7to4/6 4/6to4/5 4/5to3/5 3/5to2/5 2/5to1/5 1/5to0/5 0/5to0/4"/>
    </vehicle>
    <vehicle id="145" depart="43.50">
        <route edges="4/0to4/1 4/1to4/2 4/2to4/3 4/3to4/4 4/4to3/4 3/4to2/4 2/4to2/5"/>
    </vehicle>
    <vehicle id="146" depart="43.80">
        <route edges="3/7to2/7 2/7to1/7 1/7to0/7 0/7to0/8 0/8toleft8"/>
    </vehicle>
    <vehicle id="147" depart="44.10">
        <route edges="4/8to3/8 3/8to3/7 3/7to3/6 3/6to3/5 3/5to2/5 2/5to1/5 1/5to0/5 0/5to0/4"/>
    </vehicle>
    <vehicle id="148" depart="44.40">
        <route edges="0/6to0/7 0/7to1/7 1/7to1/6 1/6to1/5 1/5to1/4 1/4to2/4"/>
    </vehicle>
    <vehicle id="149" depart="44.70">
        <route edges="2/6to2/7 2/7to1/7 1/7to1/6 1/6to1/5 1/5to1/4 1/4to1/3 1/3to0/3 0/3to0/2 0/2to1/2"/>
    </vehicle>
    <vehicle id="150" depart="45.00">
        <route edges="1/1to1/0 1/0to0/0 0/0tobottom0"/>
    </vehicle>
    <vehicle id="151" depart="45.30">
        <route edges="3/7to2/7 2/7to1/7 1/7to0/7 0/7to0/8"/>
    </vehicle>
    <vehicle id="152" depart="45.60">
        <route edges="3/6to2/6 2/6to2/5 2/5to2/4 2/4to2/3 2/3to2/2 2/2to2/1 2/1to3/1 3/1to3/2"/>
    </vehicle>
    <vehicle id="153" depart="45.90">
        <route edges="right1to4/1 4/1to4/2 4/2to4/3 4/3to4/4 4/4to4/5 4/5to3/5 3/5to3/4"/>
    </vehicle>
    <vehicle id="154" depart="46.20">
        <route edges="right7to4/7 4/7to4/6 4/6to4/5 4/5to3/5 3/5to3/6"/>
    </vehicle>
    <vehicle id="155" depart="46.50">
        <route edges="3/9to3/8 3/8to3/7 3/7to3/6 3/6to3/5 3/5to3/4 3/4to3/3 3/3to3/2 3/2to3/1 3/1to2/1 2/1to1/1 1/1to1/0 1/0to2/0"/>
    </vehicle>
    <vehicle id="156" depart="46.80">
        <route edges="3/8to3/9 3/9to2/9 2/9to2/8 2/8to2/7 2/7to2/6 2/6to2/5 2/5to2/4 2/4to2/3 2/3to2/2 2/2to2/1 2/1to2/0 2/0to1/0"/>
    </vehicle>
    <vehicle id="157" depart="47.10">
        <route edges="2/4to1/4 1/4to1/5 1/5to2/5 2/5to3/5 3/5to4/5 4/5to4/6"/>
    </vehicle>
    <vehicle id="158" depart="47.40">
        <route edges="3/1to2/1 2/1to2/2 2/2to2/3 2/3to2/4 2/4to2/5 2/5to2/6 2/6to2/7 2/7to2/8 2/8to3/8 3/8to3/7"/>
    </vehicle>
    <vehicle id="159" depart="47.70">
        <route edges="3/8to3/7 3/7to3/6 3/6to4/6 4/6toright6"/>
    </vehicle>
    <vehicle id="160" depart="48.00">
        <route edges="2/7to2/6 2/6to1/6 1/6to1/7 1/7to1/8 1/8to1/9 1/9to2/9 2/9to3/9 3/9to3/8"/>
    </vehicle>
    <vehicle id="161" depart="48.30">
        <route edges="1/3to0/3 0/3to0/4 0/4to0/5 0/5to0/6 0/6to0/7 0/7to0/8 0/8to1/8 1/8to1/9 1/9totop1"/>
    </vehicle>
    <vehicle id="162" depart="48.60">
        <route edges="top1to1/9 1/9to1/8 1/8to1/7 1/7to1/6 1/6to1/5 1/5to1/4 1/4to1/3 1/3to1/2 1/2to2/2 2/2to3/2 3/2to3/1"/>
    </vehicle>
    <vehicle id="163" depart="48.90">
        <route edges="right8to4/8 4/8to4/7 4/7to4/6 4/6to4/5 4/5to4/4 4/4to3/4 3/4to2/4 2/4to2/3 2/3to1/3"/>
    </vehicle>
    <vehicle id="164" depart="49.20">
        <route edges="4/9to3/9 3/9to3/8 3/8to4/8 4/8to4/7"/>
    </vehicle>
    <vehicle id="165" depart="49.50">
        <route edges="1/0to1/1 1/1to0/1 0/1to0/0 0/0toleft0"/>
    </vehicle>
    <vehicle id="166" depart="49.80">
        <route edges="3/2to4/2 4/2to4/3 4/3to4/4 4/4to4/5 4/5to3/5 3/5to3/4"/>
    </vehicle>
    <vehicle id="167" depart="50.10">
        <route edges="0/5to0/4 0/4to1/4 1/4to1/5 1/5to1/6 1/6to1/7 1/7to0/7 0/7to0/8 0/8to1/8"/>
    </vehicle>
    <vehicle id="168" depart="50.40">
        <route edges="3/9to3/8 3/8to2/8 2/8to1/8 1/8to1/9 1/9to2/9"/>
    </vehicle>
    <vehicle id="169" depart="50.70">
        <route edges="left5to0/5 0/5to0/4 0/4to1/4 1/4to2/4 2/4to2/3 2/3to1/3"/>
    </vehicle>
    <vehicle id="170" depart="51.00">
        <route edges="4/8to4/7 4/7to4/6 4/6to4/5 4/5to4/4 4/4to4/3 4/3to3/3 3/3to2/3 2/3to2/2 2/2to2/1 2/1to1/1 1/1to0/1"/>
    </vehicle>
    <vehicle id="171" depart="51.30">
        <route edges="3/9to2/9 2/9to2/8 2/8to2/7 2/7to2/6 2/6to2/5 2/5to2/4 2/4to1/4 1/4to1/3 1/3to1/2 1/2to0/2 0/2toleft2"/>
    </vehicle>
    <vehicle id="172" depart="51.60">
        <route edges="3/4to3/5 3/5to2/5 2/5to2/4 2/4to3/4"/>
    </vehicle>
    <vehicle id="173" depart="51.90">
        <route edges="3/6to4/6 4/6to4/5 4/5to4/4 4/4to4/3 4/3to4/2 4/2to4/1 4/1to3/1 3/1to3/0 3/0to2/0 2/0to2/1"/>
    </vehicle>
    <vehicle id="174" depart="52.20">
        <route edges="4/1to4/0 4/0to3/0 3/0to2/0 2/0to1/0 1/0to0/0 0/0tobottom0"/>
    </vehicle>
    <vehicle id="175" depart="52.50">
        <route edges="3/4to2/4 2/4to2/3 2/3to2/2 2/2to3/2 3/2to4/2 4/2to4/3"/>
    </vehicle>
    <vehicle id="176" depart="52.80">
        <route edges="0/3to0/4 0/4to1/4 1/4to2/4 2/4to3/4 3/4to4/4 4/4toright4"/>
    </vehicle>
    <vehicle id="177" depart="53.10">
        <route edges="1/8to0/8 0/8to0/7 0/7to0/6 0/6to0/5 0/5to1/5 1/5to2/5 2/5to2/6"/>
    </vehicle>
    <vehicle id="178" depart="53.40">
        <route edges="2/9to3/9 3/9to3/8 3/8to3/7 3/7to3/6 3/6to3/5 3/5to3/4 3/4to3/3 3/3to3/2 3/2to3/1 3/1to4/1 4/1to4/2"/>
    </vehicle>
    <vehicle id="179" depart="53.70">
        <route edges="right6to4/6 4/6to4/5 4/5to3/5 3/5to2/5 2/5to1/5 1/5to1/4 1/4to2/4"/>
    </vehicle>
    <vehicle id="180" depart="54.00">
        <route edges="2/4to1/4 1/4to0/4 0/4to0/3 0/3to1/3"/>
    </vehicle>
    <vehicle id="181" depart="54.30">
        <route edges="1/7to0/7 0/7to0/8 0/8to0/9 0/9to1/9 1/9to1/8 1/8to0/8 0/8to0/7"/>
    </vehicle>
    <vehicle id="182" depart="54.60">
        <route edges="4/3to4/4 4/4to4/5 4/5to3/5 3/5to2/5 2/5to1/5 1/5to0/5 0/5to0/6"/>
    </vehicle>
    <vehicle id="183" depart="54.90">
        <route edges="1/7to1/8 1/8to2/8 2/8to2/7"/>
    </vehicle>
    <vehicle id="184" depart="55.20">
        <route edges="left2to0/2 0/2to0/3 0/3to1/3 1/3to2/3 2/3to3/3 3/3to4/3"/>
    </vehicle>
    <vehicle id="185" depart="55.50">
        <route edges="0/3to0/2 0/2to1/2 1/2to1/3 1/3to2/3 2/3to3/3 3/3to3/2"/>
    </vehicle>
    <vehicle id="186" depart="55.80">
        <route edges="2/3to2/4 2/4to1/4 1/4to1/5 1/5to2/5 2/5to2/4"/>
    </vehicle>
    <vehicle id="187" depart="56.10">
        <route edges="2/8to2/9 2/9to1/9 1/9to1/8 1/8to0/8 0/8toleft8"/>
    </vehicle>
    <vehicle id="188" depart="56.40">
        <route edges="4/8to4/9 4/9to3/9 3/9to3/8 3/8to3/7 3/7to3/6 3/6to3/5 3/5to3/4 3/4to4/4 4/4to4/5"/>
    </vehicle>
    <vehicle id="189" depart="56.70">
        <route edges="3/3to4/3 4/3to4/4 4/4to3/4 3/4to2/4 2/4to1/4 1/4to0/4"/>
    </vehicle>
    <vehicle id="190" depart="57.00">
        <route edges="3/2to3/3 3/3to3/4 3/4to3/5 3/5to3/6 3/6to4/6"/>
    </vehicle>
    <vehicle id="191" depart="57.30">
        <route edges="2/5to2/4 2/4to2/3 2/3to2/2 2/2to2/1 2/1to2/0 2/0to1/0 1/0to0/0 0/0toleft0"/>
    </vehicle>
    <vehicle id="192" depart="57.60">
        <route edges="3/2to3/1 3/1to2/1 2/1to1/1 1/1to0/1 0/1toleft1"/>
    </vehicle>
    <vehicle id="193" depart="57.90">
        <route edges="2/0to3/0 3/0to3/1 3/1to3/2 3/2to3/3 3/3to3/4 3/4to3/5 3/5to2/5 2/5to2/6 2/6to2/7 2/7to2/8 2/8to2/9 2/9to3/9 3/9to3/8"/>
    </vehicle>
    <vehicle id="194" depart="58.20">
        <route edges="0/2to1/2 1/2to1/1 1/1to0/1 0/1toleft1"/>
    </vehicle>
    <vehicle id="195" depart="58.50">
        <route edges="bottom4to4/0 4/0to4/1 4/1to4/2 4/2to4/3 4/3to4/4 4/4to4/5 4/5to4/6 4/6to4/7 4/7to3/7 3/7to3/8 3/8to3/9 3/9totop3"/>
    </vehicle>
    <vehicle id="196" depart="58.80">
        <route edges="1/2to0/2 0/2to0/1 0/1to1/1 1/1to2/1 2/1to3/1 3/1to3/2 3/2to2/2"/>
    </vehicle>
    <vehicle id="197" depart="59.10">
        <route edges="2/0to2/1 2/1to2/2 2/2to2/3 2/3to2/4 2/4to2/5 2/5to2/6 2/6to2/7 2/7to2/8 2/8to2/9 2/9to1/9 1/9to1/8"/>
    </vehicle>
    <vehicle id="198" depart="59.40">
        <route edges="3/9to4/9 4/9to4/8 4/8to4/7 4/7to4/6 4/6to3/6 3/6to2/6 2/6to1/6 1/6to0/6 0/6to0/5"/>
    </vehicle>