<?xml version="1.0" encoding="UTF-8"?>

<!-- generated on Sun Aug 13 15:46:33 2017 by Netedit Version 0.30.0
<?xml version="1.0" encoding="UTF-8"?>

<configuration xmlns:xsi="http://www.w3.org/2001/XMLSchema-instance" xsi:noNamespaceSchemaLocation="http://sumo.dlr.de/xsd/netconvertConfiguration.xsd">

    <input>
        <sumo-net-file value="/Users/jacob/Documents/littlejohn/sumo-datasets/grid/grid-diag/grid-diag.net.xml"/>
    </input>

    <output>
        <output-file value="/Users/jacob/Documents/littlejohn/sumo-datasets/grid/grid-diag/grid-diag.net.xml"/>
    </output>

    <processing>
        <no-turnarounds value="true"/>
        <offset.disable-normalization value="true"/>
        <lefthand value="false"/>
        <junctions.corner-detail value="0"/>
        <rectangular-lane-cut value="false"/>
    </processing>

</configuration>
-->

<net version="0.27" xmlns:xsi="http://www.w3.org/2001/XMLSchema-instance" xsi:noNamespaceSchemaLocation="http://sumo.dlr.de/xsd/net_file.xsd">

    <location netOffset="0.00,0.00" convBoundary="0.00,0.00,1500.00,1500.00" origBoundary="0.00,0.00,1500.00,1500.00" projParameter="!"/>

    <edge id=":0/0_0" function="internal">
        <lane id=":0/0_0_0" index="0" speed="13.90" length="7.90" shape="-1.65,3.25 -1.34,1.11 -0.43,-0.43 1.11,-1.34 3.25,-1.65"/>
    </edge>
    <edge id=":0/0_1" function="internal">
        <lane id=":0/0_1_0" index="0" speed="13.90" length="2.80" shape="-1.65,3.25 -0.83,2.01 0.00,1.60 0.35,1.77"/>
    </edge>
    <edge id=":0/0_4" function="internal">
        <lane id=":0/0_4_0" index="0" speed="13.90" length="2.02" shape="0.35,1.77 0.83,2.01 1.65,3.25"/>
    </edge>
    <edge id=":0/0_2" function="internal">
        <lane id=":0/0_2_0" index="0" speed="13.90" length="2.58" shape="3.25,1.65 2.55,1.75 2.05,2.05 1.75,2.55 1.65,3.25"/>
    </edge>
    <edge id=":0/0_3" function="internal">
        <lane id=":0/0_3_0" index="0" speed="13.90" length="2.20" shape="3.25,1.65 2.01,0.82 1.69,0.19"/>
    </edge>
    <edge id=":0/0_5" function="internal">
        <lane id=":0/0_5_0" index="0" speed="13.90" length="2.62" shape="1.69,0.19 1.60,-0.00 2.01,-0.83 3.25,-1.65"/>
    </edge>
    <edge id=":0/1_0" function="internal">
        <lane id=":0/1_0_0" index="0" speed="13.90" length="9.50" shape="-1.65,104.75 -1.65,95.25"/>
    </edge>
    <edge id=":0/1_1" function="internal">
        <lane id=":0/1_1_0" index="0" speed="13.90" length="5.28" shape="-1.65,104.75 -1.25,101.95 -0.05,99.95 0.05,99.89"/>
    </edge>
    <edge id=":0/1_2" function="internal">
        <lane id=":0/1_2_0" index="0" speed="13.90" length="2.41" shape="-1.65,104.75 -0.83,103.51 0.00,103.10"/>
    </edge>
    <edge id=":0/1_9" function="internal">
        <lane id=":0/1_9_0" index="0" speed="13.90" length="5.04" shape="0.05,99.89 1.95,98.75 4.75,98.35"/>
    </edge>
    <edge id=":0/1_10" function="internal">
        <lane id=":0/1_10_0" index="0" speed="13.90" length="2.41" shape="0.00,103.10 0.83,103.51 1.65,104.75"/>
    </edge>
    <edge id=":0/1_3" function="internal">
        <lane id=":0/1_3_0" index="0" speed="13.90" length="5.00" shape="4.75,101.65 3.39,101.84 2.43,102.43 1.84,103.39 1.65,104.75"/>
    </edge>
    <edge id=":0/1_4" function="internal">
        <lane id=":0/1_4_0" index="0" speed="13.90" length="10.32" shape="4.75,101.65 1.95,101.25 -0.05,100.05 -1.25,98.05 -1.65,95.25"/>
    </edge>
    <edge id=":0/1_5" function="internal">
        <lane id=":0/1_5_0" index="0" speed="13.90" length="4.82" shape="4.75,101.65 3.51,100.82 3.10,100.00 3.51,99.17 4.75,98.35"/>
    </edge>
    <edge id=":0/1_6" function="internal">
        <lane id=":0/1_6_0" index="0" speed="13.90" length="5.00" shape="1.65,95.25 1.84,96.61 2.43,97.57 3.39,98.16 4.75,98.35"/>
    </edge>
    <edge id=":0/1_7" function="internal">
        <lane id=":0/1_7_0" index="0" speed="13.90" length="9.50" shape="1.65,95.25 1.65,104.75"/>
    </edge>
    <edge id=":0/1_8" function="internal">
        <lane id=":0/1_8_0" index="0" speed="13.90" length="2.41" shape="1.65,95.25 0.83,96.49 0.00,96.90"/>
    </edge>
    <edge id=":0/1_11" function="internal">
        <lane id=":0/1_11_0" index="0" speed="13.90" length="2.41" shape="0.00,96.90 -0.83,96.49 -1.65,95.25"/>
    </edge>
    <edge id=":0/10_0" function="internal">
        <lane id=":0/10_0_0" index="0" speed="13.90" length="9.50" shape="-1.65,1004.75 -1.65,995.25"/>
    </edge>
    <edge id=":0/10_1" function="internal">
        <lane id=":0/10_1_0" index="0" speed="13.90" length="5.28" shape="-1.65,1004.75 -1.25,1001.95 -0.05,999.95 0.05,999.89"/>
    </edge>
    <edge id=":0/10_2" function="internal">
        <lane id=":0/10_2_0" index="0" speed="13.90" length="2.41" shape="-1.65,1004.75 -0.83,1003.51 0.00,1003.10"/>
    </edge>
    <edge id=":0/10_9" function="internal">
        <lane id=":0/10_9_0" index="0" speed="13.90" length="5.04" shape="0.05,999.89 1.95,998.75 4.75,998.35"/>
    </edge>
    <edge id=":0/10_10" function="internal">
        <lane id=":0/10_10_0" index="0" speed="13.90" length="2.41" shape="0.00,1003.10 0.83,1003.51 1.65,1004.75"/>
    </edge>
    <edge id=":0/10_3" function="internal">
        <lane id=":0/10_3_0" index="0" speed="13.90" length="5.00" shape="4.75,1001.65 3.39,1001.84 2.43,1002.42 1.84,1003.39 1.65,1004.75"/>
    </edge>
    <edge id=":0/10_4" function="internal">
        <lane id=":0/10_4_0" index="0" speed="13.90" length="10.32" shape="4.75,1001.65 1.95,1001.25 -0.05,1000.05 -1.25,998.05 -1.65,995.25"/>
    </edge>
    <edge id=":0/10_5" function="internal">
        <lane id=":0/10_5_0" index="0" speed="13.90" length="4.82" shape="4.75,1001.65 3.51,1000.83 3.10,1000.00 3.51,999.17 4.75,998.35"/>
    </edge>
    <edge id=":0/10_6" function="internal">
        <lane id=":0/10_6_0" index="0" speed="13.90" length="5.00" shape="1.65,995.25 1.84,996.61 2.43,997.57 3.39,998.16 4.75,998.35"/>
    </edge>
    <edge id=":0/10_7" function="internal">
        <lane id=":0/10_7_0" index="0" speed="13.90" length="9.50" shape="1.65,995.25 1.65,1004.75"/>
    </edge>
    <edge id=":0/10_8" function="internal">
        <lane id=":0/10_8_0" index="0" speed="13.90" length="2.41" shape="1.65,995.25 0.83,996.49 0.00,996.90"/>
    </edge>
    <edge id=":0/10_11" function="internal">
        <lane id=":0/10_11_0" index="0" speed="13.90" length="2.41" shape="0.00,996.90 -0.83,996.49 -1.65,995.25"/>
    </edge>
    <edge id=":0/11_0" function="internal">
        <lane id=":0/11_0_0" index="0" speed="13.90" length="9.50" shape="-1.65,1104.75 -1.65,1095.25"/>
    </edge>
    <edge id=":0/11_1" function="internal">
        <lane id=":0/11_1_0" index="0" speed="13.90" length="5.28" shape="-1.65,1104.75 -1.25,1101.95 -0.05,1099.95 0.05,1099.89"/>
    </edge>
    <edge id=":0/11_2" function="internal">
        <lane id=":0/11_2_0" index="0" speed="13.90" length="2.41" shape="-1.65,1104.75 -0.83,1103.51 0.00,1103.10"/>
    </edge>
    <edge id=":0/11_9" function="internal">
        <lane id=":0/11_9_0" index="0" speed="13.90" length="5.04" shape="0.05,1099.89 1.95,1098.75 4.75,1098.35"/>
    </edge>
    <edge id=":0/11_10" function="internal">
        <lane id=":0/11_10_0" index="0" speed="13.90" length="2.41" shape="0.00,1103.10 0.83,1103.51 1.65,1104.75"/>
    </edge>
    <edge id=":0/11_3" function="internal">
        <lane id=":0/11_3_0" index="0" speed="13.90" length="5.00" shape="4.75,1101.65 3.39,1101.84 2.43,1102.43 1.84,1103.39 1.65,1104.75"/>
    </edge>
    <edge id=":0/11_4" function="internal">
        <lane id=":0/11_4_0" index="0" speed="13.90" length="10.32" shape="4.75,1101.65 1.95,1101.25 -0.05,1100.05 -1.25,1098.05 -1.65,1095.25"/>
    </edge>
    <edge id=":0/11_5" function="internal">
        <lane id=":0/11_5_0" index="0" speed="13.90" length="4.82" shape="4.75,1101.65 3.51,1100.82 3.10,1100.00 3.51,1099.17 4.75,1098.35"/>
    </edge>
    <edge id=":0/11_6" function="internal">
        <lane id=":0/11_6_0" index="0" speed="13.90" length="5.00" shape="1.65,1095.25 1.84,1096.61 2.43,1097.57 3.39,1098.16 4.75,1098.35"/>
    </edge>
    <edge id=":0/11_7" function="internal">
        <lane id=":0/11_7_0" index="0" speed="13.90" length="9.50" shape="1.65,1095.25 1.65,1104.75"/>
    </edge>
    <edge id=":0/11_8" function="internal">
        <lane id=":0/11_8_0" index="0" speed="13.90" length="2.41" shape="1.65,1095.25 0.83,1096.49 0.00,1096.90"/>
    </edge>
    <edge id=":0/11_11" function="internal">
        <lane id=":0/11_11_0" index="0" speed="13.90" length="2.41" shape="0.00,1096.90 -0.83,1096.49 -1.65,1095.25"/>
    </edge>
    <edge id=":0/12_0" function="internal">
        <lane id=":0/12_0_0" index="0" speed="13.90" length="9.50" shape="-1.65,1204.75 -1.65,1195.25"/>
    </edge>
    <edge id=":0/12_1" function="internal">
        <lane id=":0/12_1_0" index="0" speed="13.90" length="5.28" shape="-1.65,1204.75 -1.25,1201.95 -0.05,1199.95 0.05,1199.89"/>
    </edge>
    <edge id=":0/12_2" function="internal">
        <lane id=":0/12_2_0" index="0" speed="13.90" length="2.41" shape="-1.65,1204.75 -0.83,1203.51 0.00,1203.10"/>
    </edge>
    <edge id=":0/12_9" function="internal">
        <lane id=":0/12_9_0" index="0" speed="13.90" length="5.04" shape="0.05,1199.89 1.95,1198.75 4.75,1198.35"/>
    </edge>
    <edge id=":0/12_10" function="internal">
        <lane id=":0/12_10_0" index="0" speed="13.90" length="2.41" shape="0.00,1203.10 0.83,1203.51 1.65,1204.75"/>
    </edge>
    <edge id=":0/12_3" function="internal">
        <lane id=":0/12_3_0" index="0" speed="13.90" length="5.00" shape="4.75,1201.65 3.39,1201.84 2.43,1202.43 1.84,1203.39 1.65,1204.75"/>
    </edge>
    <edge id=":0/12_4" function="internal">
        <lane id=":0/12_4_0" index="0" speed="13.90" length="10.32" shape="4.75,1201.65 1.95,1201.25 -0.05,1200.05 -1.25,1198.05 -1.65,1195.25"/>
    </edge>
    <edge id=":0/12_5" function="internal">
        <lane id=":0/12_5_0" index="0" speed="13.90" length="4.82" shape="4.75,1201.65 3.51,1200.82 3.10,1200.00 3.51,1199.17 4.75,1198.35"/>
    </edge>
    <edge id=":0/12_6" function="internal">
        <lane id=":0/12_6_0" index="0" speed="13.90" length="5.00" shape="1.65,1195.25 1.84,1196.61 2.43,1197.57 3.39,1198.16 4.75,1198.35"/>
    </edge>
    <edge id=":0/12_7" function="internal">
        <lane id=":0/12_7_0" index="0" speed="13.90" length="9.50" shape="1.65,1195.25 1.65,1204.75"/>
    </edge>
    <edge id=":0/12_8" function="internal">
        <lane id=":0/12_8_0" index="0" speed="13.90" length="2.41" shape="1.65,1195.25 0.83,1196.49 0.00,1196.90"/>
    </edge>
    <edge id=":0/12_11" function="internal">
        <lane id=":0/12_11_0" index="0" speed="13.90" length="2.41" shape="0.00,1196.90 -0.83,1196.49 -1.65,1195.25"/>
    </edge>
    <edge id=":0/13_0" function="internal">
        <lane id=":0/13_0_0" index="0" speed="13.90" length="9.50" shape="-1.65,1304.75 -1.65,1295.25"/>
    </edge>
    <edge id=":0/13_1" function="internal">
        <lane id=":0/13_1_0" index="0" speed="13.90" length="5.28" shape="-1.65,1304.75 -1.25,1301.95 -0.05,1299.95 0.05,1299.89"/>
    </edge>
    <edge id=":0/13_2" function="internal">
        <lane id=":0/13_2_0" index="0" speed="13.90" length="2.41" shape="-1.65,1304.75 -0.83,1303.51 0.00,1303.10"/>
    </edge>
    <edge id=":0/13_9" function="internal">
        <lane id=":0/13_9_0" index="0" speed="13.90" length="5.04" shape="0.05,1299.89 1.95,1298.75 4.75,1298.35"/>
    </edge>
    <edge id=":0/13_10" function="internal">
        <lane id=":0/13_10_0" index="0" speed="13.90" length="2.41" shape="0.00,1303.10 0.83,1303.51 1.65,1304.75"/>
    </edge>
    <edge id=":0/13_3" function="internal">
        <lane id=":0/13_3_0" index="0" speed="13.90" length="5.00" shape="4.75,1301.65 3.39,1301.84 2.43,1302.43 1.84,1303.39 1.65,1304.75"/>
    </edge>
    <edge id=":0/13_4" function="internal">
        <lane id=":0/13_4_0" index="0" speed="13.90" length="10.32" shape="4.75,1301.65 1.95,1301.25 -0.05,1300.05 -1.25,1298.05 -1.65,1295.25"/>
    </edge>
    <edge id=":0/13_5" function="internal">
        <lane id=":0/13_5_0" index="0" speed="13.90" length="4.82" shape="4.75,1301.65 3.51,1300.82 3.10,1300.00 3.51,1299.17 4.75,1298.35"/>
    </edge>
    <edge id=":0/13_6" function="internal">
        <lane id=":0/13_6_0" index="0" speed="13.90" length="5.00" shape="1.65,1295.25 1.84,1296.61 2.43,1297.57 3.39,1298.16 4.75,1298.35"/>
    </edge>
    <edge id=":0/13_7" function="internal">
        <lane id=":0/13_7_0" index="0" speed="13.90" length="9.50" shape="1.65,1295.25 1.65,1304.75"/>
    </edge>
    <edge id=":0/13_8" function="internal">
        <lane id=":0/13_8_0" index="0" speed="13.90" length="2.41" shape="1.65,1295.25 0.83,1296.49 0.00,1296.90"/>
    </edge>
    <edge id=":0/13_11" function="internal">
        <lane id=":0/13_11_0" index="0" speed="13.90" length="2.41" shape="0.00,1296.90 -0.83,1296.49 -1.65,1295.25"/>
    </edge>
    <edge id=":0/14_0" function="internal">
        <lane id=":0/14_0_0" index="0" speed="13.90" length="9.50" shape="-1.65,1404.75 -1.65,1395.25"/>
    </edge>
    <edge id=":0/14_1" function="internal">
        <lane id=":0/14_1_0" index="0" speed="13.90" length="5.28" shape="-1.65,1404.75 -1.25,1401.95 -0.05,1399.95 0.05,1399.89"/>
    </edge>
    <edge id=":0/14_2" function="internal">
        <lane id=":0/14_2_0" index="0" speed="13.90" length="2.41" shape="-1.65,1404.75 -0.83,1403.51 0.00,1403.10"/>
    </edge>
    <edge id=":0/14_9" function="internal">
        <lane id=":0/14_9_0" index="0" speed="13.90" length="5.04" shape="0.05,1399.89 1.95,1398.75 4.75,1398.35"/>
    </edge>
    <edge id=":0/14_10" function="internal">
        <lane id=":0/14_10_0" index="0" speed="13.90" length="2.41" shape="0.00,1403.10 0.83,1403.51 1.65,1404.75"/>
    </edge>
    <edge id=":0/14_3" function="internal">
        <lane id=":0/14_3_0" index="0" speed="13.90" length="5.00" shape="4.75,1401.65 3.39,1401.84 2.43,1402.43 1.84,1403.39 1.65,1404.75"/>
    </edge>
    <edge id=":0/14_4" function="internal">
        <lane id=":0/14_4_0" index="0" speed="13.90" length="10.32" shape="4.75,1401.65 1.95,1401.25 -0.05,1400.05 -1.25,1398.05 -1.65,1395.25"/>
    </edge>
    <edge id=":0/14_5" function="internal">
        <lane id=":0/14_5_0" index="0" speed="13.90" length="4.82" shape="4.75,1401.65 3.51,1400.82 3.10,1400.00 3.51,1399.17 4.75,1398.35"/>
    </edge>
    <edge id=":0/14_6" function="internal">
        <lane id=":0/14_6_0" index="0" speed="13.90" length="5.00" shape="1.65,1395.25 1.84,1396.61 2.43,1397.57 3.39,1398.16 4.75,1398.35"/>
    </edge>
    <edge id=":0/14_7" function="internal">
        <lane id=":0/14_7_0" index="0" speed="13.90" length="9.50" shape="1.65,1395.25 1.65,1404.75"/>
    </edge>
    <edge id=":0/14_8" function="internal">
        <lane id=":0/14_8_0" index="0" speed="13.90" length="2.41" shape="1.65,1395.25 0.83,1396.49 0.00,1396.90"/>
    </edge>
    <edge id=":0/14_11" function="internal">
        <lane id=":0/14_11_0" index="0" speed="13.90" length="2.41" shape="0.00,1396.90 -0.83,1396.49 -1.65,1395.25"/>
    </edge>
    <edge id=":0/15_0" function="internal">
        <lane id=":0/15_0_0" index="0" speed="13.90" length="7.90" shape="3.25,1501.65 1.11,1501.34 -0.43,1500.43 -1.34,1498.89 -1.65,1496.75"/>
    </edge>
    <edge id=":0/15_1" function="internal">
        <lane id=":0/15_1_0" index="0" speed="13.90" length="2.80" shape="3.25,1501.65 2.01,1500.82 1.60,1500.00 1.77,1499.65"/>
    </edge>
    <edge id=":0/15_4" function="internal">
        <lane id=":0/15_4_0" index="0" speed="13.90" length="2.02" shape="1.77,1499.65 2.01,1499.17 3.25,1498.35"/>
    </edge>
    <edge id=":0/15_2" function="internal">
        <lane id=":0/15_2_0" index="0" speed="13.90" length="2.58" shape="1.65,1496.75 1.75,1497.45 2.05,1497.95 2.55,1498.25 3.25,1498.35"/>
    </edge>
    <edge id=":0/15_3" function="internal">
        <lane id=":0/15_3_0" index="0" speed="13.90" length="2.20" shape="1.65,1496.75 0.83,1497.99 0.19,1498.31"/>
    </edge>
    <edge id=":0/15_5" function="internal">
        <lane id=":0/15_5_0" index="0" speed="13.90" length="2.62" shape="0.19,1498.31 0.00,1498.40 -0.83,1497.99 -1.65,1496.75"/>
    </edge>
    <edge id=":0/2_0" function="internal">
        <lane id=":0/2_0_0" index="0" speed="13.90" length="9.50" shape="-1.65,204.75 -1.65,195.25"/>
    </edge>
    <edge id=":0/2_1" function="internal">
        <lane id=":0/2_1_0" index="0" speed="13.90" length="5.28" shape="-1.65,204.75 -1.25,201.95 -0.05,199.95 0.05,199.89"/>
    </edge>
    <edge id=":0/2_2" function="internal">
        <lane id=":0/2_2_0" index="0" speed="13.90" length="2.41" shape="-1.65,204.75 -0.83,203.51 0.00,203.10"/>
    </edge>
    <edge id=":0/2_9" function="internal">
        <lane id=":0/2_9_0" index="0" speed="13.90" length="5.04" shape="0.05,199.89 1.95,198.75 4.75,198.35"/>
    </edge>
    <edge id=":0/2_10" function="internal">
        <lane id=":0/2_10_0" index="0" speed="13.90" length="2.41" shape="0.00,203.10 0.83,203.51 1.65,204.75"/>
    </edge>
    <edge id=":0/2_3" function="internal">
        <lane id=":0/2_3_0" index="0" speed="13.90" length="5.00" shape="4.75,201.65 3.39,201.84 2.43,202.43 1.84,203.39 1.65,204.75"/>
    </edge>
    <edge id=":0/2_4" function="internal">
        <lane id=":0/2_4_0" index="0" speed="13.90" length="10.32" shape="4.75,201.65 1.95,201.25 -0.05,200.05 -1.25,198.05 -1.65,195.25"/>
    </edge>
    <edge id=":0/2_5" function="internal">
        <lane id=":0/2_5_0" index="0" speed="13.90" length="4.82" shape="4.75,201.65 3.51,200.83 3.10,200.00 3.51,199.18 4.75,198.35"/>
    </edge>
    <edge id=":0/2_6" function="internal">
        <lane id=":0/2_6_0" index="0" speed="13.90" length="5.00" shape="1.65,195.25 1.84,196.61 2.43,197.58 3.39,198.16 4.75,198.35"/>
    </edge>
    <edge id=":0/2_7" function="internal">
        <lane id=":0/2_7_0" index="0" speed="13.90" length="9.50" shape="1.65,195.25 1.65,204.75"/>
    </edge>
    <edge id=":0/2_8" function="internal">
        <lane id=":0/2_8_0" index="0" speed="13.90" length="2.41" shape="1.65,195.25 0.83,196.49 0.00,196.90"/>
    </edge>
    <edge id=":0/2_11" function="internal">
        <lane id=":0/2_11_0" index="0" speed="13.90" length="2.41" shape="0.00,196.90 -0.83,196.49 -1.65,195.25"/>
    </edge>
    <edge id=":0/3_0" function="internal">
        <lane id=":0/3_0_0" index="0" speed="13.90" length="9.50" shape="-1.65,304.75 -1.65,295.25"/>
    </edge>
    <edge id=":0/3_1" function="internal">
        <lane id=":0/3_1_0" index="0" speed="13.90" length="5.28" shape="-1.65,304.75 -1.25,301.95 -0.05,299.95 0.05,299.89"/>
    </edge>
    <edge id=":0/3_2" function="internal">
        <lane id=":0/3_2_0" index="0" speed="13.90" length="2.41" shape="-1.65,304.75 -0.83,303.51 0.00,303.10"/>
    </edge>
    <edge id=":0/3_9" function="internal">
        <lane id=":0/3_9_0" index="0" speed="13.90" length="5.04" shape="0.05,299.89 1.95,298.75 4.75,298.35"/>
    </edge>
    <edge id=":0/3_10" function="internal">
        <lane id=":0/3_10_0" index="0" speed="13.90" length="2.41" shape="0.00,303.10 0.83,303.51 1.65,304.75"/>
    </edge>
    <edge id=":0/3_3" function="internal">
        <lane id=":0/3_3_0" index="0" speed="13.90" length="5.00" shape="4.75,301.65 3.39,301.84 2.43,302.42 1.84,303.39 1.65,304.75"/>
    </edge>
    <edge id=":0/3_4" function="internal">
        <lane id=":0/3_4_0" index="0" speed="13.90" length="10.32" shape="4.75,301.65 1.95,301.25 -0.05,300.05 -1.25,298.05 -1.65,295.25"/>
    </edge>
    <edge id=":0/3_5" function="internal">
        <lane id=":0/3_5_0" index="0" speed="13.90" length="4.82" shape="4.75,301.65 3.51,300.83 3.10,300.00 3.51,299.18 4.75,298.35"/>
    </edge>
    <edge id=":0/3_6" function="internal">
        <lane id=":0/3_6_0" index="0" speed="13.90" length="5.00" shape="1.65,295.25 1.84,296.61 2.43,297.58 3.39,298.16 4.75,298.35"/>
    </edge>
    <edge id=":0/3_7" function="internal">
        <lane id=":0/3_7_0" index="0" speed="13.90" length="9.50" shape="1.65,295.25 1.65,304.75"/>
    </edge>
    <edge id=":0/3_8" function="internal">
        <lane id=":0/3_8_0" index="0" speed="13.90" length="2.41" shape="1.65,295.25 0.83,296.49 0.00,296.90"/>
    </edge>
    <edge id=":0/3_11" function="internal">
        <lane id=":0/3_11_0" index="0" speed="13.90" length="2.41" shape="0.00,296.90 -0.83,296.49 -1.65,295.25"/>
    </edge>
    <edge id=":0/4_0" function="internal">
        <lane id=":0/4_0_0" index="0" speed="13.90" length="9.50" shape="-1.65,404.75 -1.65,395.25"/>
    </edge>
    <edge id=":0/4_1" function="internal">
        <lane id=":0/4_1_0" index="0" speed="13.90" length="5.28" shape="-1.65,404.75 -1.25,401.95 -0.05,399.95 0.05,399.89"/>
    </edge>
    <edge id=":0/4_2" function="internal">
        <lane id=":0/4_2_0" index="0" speed="13.90" length="2.41" shape="-1.65,404.75 -0.83,403.51 0.00,403.10"/>
    </edge>
    <edge id=":0/4_9" function="internal">
        <lane id=":0/4_9_0" index="0" speed="13.90" length="5.04" shape="0.05,399.89 1.95,398.75 4.75,398.35"/>
    </edge>
    <edge id=":0/4_10" function="internal">
        <lane id=":0/4_10_0" index="0" speed="13.90" length="2.41" shape="0.00,403.10 0.83,403.51 1.65,404.75"/>
    </edge>
    <edge id=":0/4_3" function="internal">
        <lane id=":0/4_3_0" index="0" speed="13.90" length="5.00" shape="4.75,401.65 3.39,401.84 2.43,402.42 1.84,403.39 1.65,404.75"/>
    </edge>
    <edge id=":0/4_4" function="internal">
        <lane id=":0/4_4_0" index="0" speed="13.90" length="10.32" shape="4.75,401.65 1.95,401.25 -0.05,400.05 -1.25,398.05 -1.65,395.25"/>
    </edge>
    <edge id=":0/4_5" function="internal">
        <lane id=":0/4_5_0" index="0" speed="13.90" length="4.82" shape="4.75,401.65 3.51,400.83 3.10,400.00 3.51,399.18 4.75,398.35"/>
    </edge>
    <edge id=":0/4_6" function="internal">
        <lane id=":0/4_6_0" index="0" speed="13.90" length="5.00" shape="1.65,395.25 1.84,396.61 2.43,397.58 3.39,398.16 4.75,398.35"/>
    </edge>
    <edge id=":0/4_7" function="internal">
        <lane id=":0/4_7_0" index="0" speed="13.90" length="9.50" shape="1.65,395.25 1.65,404.75"/>
    </edge>
    <edge id=":0/4_8" function="internal">
        <lane id=":0/4_8_0" index="0" speed="13.90" length="2.41" shape="1.65,395.25 0.83,396.49 0.00,396.90"/>
    </edge>
    <edge id=":0/4_11" function="internal">
        <lane id=":0/4_11_0" index="0" speed="13.90" length="2.41" shape="0.00,396.90 -0.83,396.49 -1.65,395.25"/>
    </edge>
    <edge id=":0/5_0" function="internal">
        <lane id=":0/5_0_0" index="0" speed="13.90" length="9.50" shape="-1.65,504.75 -1.65,495.25"/>
    </edge>
    <edge id=":0/5_1" function="internal">
        <lane id=":0/5_1_0" index="0" speed="13.90" length="5.28" shape="-1.65,504.75 -1.25,501.95 -0.05,499.95 0.05,499.89"/>
    </edge>
    <edge id=":0/5_2" function="internal">
        <lane id=":0/5_2_0" index="0" speed="13.90" length="2.41" shape="-1.65,504.75 -0.83,503.51 0.00,503.10"/>
    </edge>
    <edge id=":0/5_9" function="internal">
        <lane id=":0/5_9_0" index="0" speed="13.90" length="5.04" shape="0.05,499.89 1.95,498.75 4.75,498.35"/>
    </edge>
    <edge id=":0/5_10" function="internal">
        <lane id=":0/5_10_0" index="0" speed="13.90" length="2.41" shape="0.00,503.10 0.83,503.51 1.65,504.75"/>
    </edge>
    <edge id=":0/5_3" function="internal">
        <lane id=":0/5_3_0" index="0" speed="13.90" length="5.00" shape="4.75,501.65 3.39,501.84 2.43,502.42 1.84,503.39 1.65,504.75"/>
    </edge>
    <edge id=":0/5_4" function="internal">
        <lane id=":0/5_4_0" index="0" speed="13.90" length="10.32" shape="4.75,501.65 1.95,501.25 -0.05,500.05 -1.25,498.05 -1.65,495.25"/>
    </edge>
    <edge id=":0/5_5" function="internal">
        <lane id=":0/5_5_0" index="0" speed="13.90" length="4.82" shape="4.75,501.65 3.51,500.82 3.10,500.00 3.51,499.18 4.75,498.35"/>
    </edge>
    <edge id=":0/5_6" function="internal">
        <lane id=":0/5_6_0" index="0" speed="13.90" length="5.00" shape="1.65,495.25 1.84,496.61 2.43,497.58 3.39,498.16 4.75,498.35"/>
    </edge>
    <edge id=":0/5_7" function="internal">
        <lane id=":0/5_7_0" index="0" speed="13.90" length="9.50" shape="1.65,495.25 1.65,504.75"/>
    </edge>
    <edge id=":0/5_8" function="internal">
        <lane id=":0/5_8_0" index="0" speed="13.90" length="2.41" shape="1.65,495.25 0.83,496.49 0.00,496.90"/>
    </edge>
    <edge id=":0/5_11" function="internal">
        <lane id=":0/5_11_0" index="0" speed="13.90" length="2.41" shape="0.00,496.90 -0.83,496.49 -1.65,495.25"/>
    </edge>
    <edge id=":0/6_0" function="internal">
        <lane id=":0/6_0_0" index="0" speed="13.90" length="9.50" shape="-1.65,604.75 -1.65,595.25"/>
    </edge>
    <edge id=":0/6_1" function="internal">
        <lane id=":0/6_1_0" index="0" speed="13.90" length="5.28" shape="-1.65,604.75 -1.25,601.95 -0.05,599.95 0.05,599.89"/>
    </edge>
    <edge id=":0/6_2" function="internal">
        <lane id=":0/6_2_0" index="0" speed="13.90" length="2.41" shape="-1.65,604.75 -0.83,603.51 0.00,603.10"/>
    </edge>
    <edge id=":0/6_9" function="internal">
        <lane id=":0/6_9_0" index="0" speed="13.90" length="5.04" shape="0.05,599.89 1.95,598.75 4.75,598.35"/>
    </edge>
    <edge id=":0/6_10" function="internal">
        <lane id=":0/6_10_0" index="0" speed="13.90" length="2.41" shape="0.00,603.10 0.83,603.51 1.65,604.75"/>
    </edge>
    <edge id=":0/6_3" function="internal">
        <lane id=":0/6_3_0" index="0" speed="13.90" length="5.00" shape="4.75,601.65 3.39,601.84 2.43,602.42 1.84,603.39 1.65,604.75"/>
    </edge>
    <edge id=":0/6_4" function="internal">
        <lane id=":0/6_4_0" index="0" speed="13.90" length="10.32" shape="4.75,601.65 1.95,601.25 -0.05,600.05 -1.25,598.05 -1.65,595.25"/>
    </edge>
    <edge id=":0/6_5" function="internal">
        <lane id=":0/6_5_0" index="0" speed="13.90" length="4.82" shape="4.75,601.65 3.51,600.82 3.10,600.00 3.51,599.17 4.75,598.35"/>
    </edge>
    <edge id=":0/6_6" function="internal">
        <lane id=":0/6_6_0" index="0" speed="13.90" length="5.00" shape="1.65,595.25 1.84,596.61 2.43,597.58 3.39,598.16 4.75,598.35"/>
    </edge>
    <edge id=":0/6_7" function="internal">
        <lane id=":0/6_7_0" index="0" speed="13.90" length="9.50" shape="1.65,595.25 1.65,604.75"/>
    </edge>
    <edge id=":0/6_8" function="internal">
        <lane id=":0/6_8_0" index="0" speed="13.90" length="2.41" shape="1.65,595.25 0.83,596.49 0.00,596.90"/>
    </edge>
    <edge id=":0/6_11" function="internal">
        <lane id=":0/6_11_0" index="0" speed="13.90" length="2.41" shape="0.00,596.90 -0.83,596.49 -1.65,595.25"/>
    </edge>
    <edge id=":0/7_0" function="internal">
        <lane id=":0/7_0_0" index="0" speed="13.90" length="9.50" shape="-1.65,704.75 -1.65,695.25"/>
    </edge>
    <edge id=":0/7_1" function="internal">
        <lane id=":0/7_1_0" index="0" speed="13.90" length="5.28" shape="-1.65,704.75 -1.25,701.95 -0.05,699.95 0.05,699.89"/>
    </edge>
    <edge id=":0/7_2" function="internal">
        <lane id=":0/7_2_0" index="0" speed="13.90" length="2.41" shape="-1.65,704.75 -0.83,703.51 0.00,703.10"/>
    </edge>
    <edge id=":0/7_9" function="internal">
        <lane id=":0/7_9_0" index="0" speed="13.90" length="5.04" shape="0.05,699.89 1.95,698.75 4.75,698.35"/>
    </edge>
    <edge id=":0/7_10" function="internal">
        <lane id=":0/7_10_0" index="0" speed="13.90" length="2.41" shape="0.00,703.10 0.83,703.51 1.65,704.75"/>
    </edge>
    <edge id=":0/7_3" function="internal">
        <lane id=":0/7_3_0" index="0" speed="13.90" length="5.00" shape="4.75,701.65 3.39,701.84 2.43,702.42 1.84,703.39 1.65,704.75"/>
    </edge>
    <edge id=":0/7_4" function="internal">
        <lane id=":0/7_4_0" index="0" speed="13.90" length="10.32" shape="4.75,701.65 1.95,701.25 -0.05,700.05 -1.25,698.05 -1.65,695.25"/>
    </edge>
    <edge id=":0/7_5" function="internal">
        <lane id=":0/7_5_0" index="0" speed="13.90" length="4.82" shape="4.75,701.65 3.51,700.82 3.10,700.00 3.51,699.17 4.75,698.35"/>
    </edge>
    <edge id=":0/7_6" function="internal">
        <lane id=":0/7_6_0" index="0" speed="13.90" length="5.00" shape="1.65,695.25 1.84,696.61 2.43,697.57 3.39,698.16 4.75,698.35"/>
    </edge>
    <edge id=":0/7_7" function="internal">
        <lane id=":0/7_7_0" index="0" speed="13.90" length="9.50" shape="1.65,695.25 1.65,704.75"/>
    </edge>
    <edge id=":0/7_8" function="internal">
        <lane id=":0/7_8_0" index="0" speed="13.90" length="2.41" shape="1.65,695.25 0.83,696.49 0.00,696.90"/>
    </edge>
    <edge id=":0/7_11" function="internal">
        <lane id=":0/7_11_0" index="0" speed="13.90" length="2.41" shape="0.00,696.90 -0.83,696.49 -1.65,695.25"/>
    </edge>
    <edge id=":0/8_0" function="internal">
        <lane id=":0/8_0_0" index="0" speed="13.90" length="9.50" shape="-1.65,804.75 -1.65,795.25"/>
    </edge>
    <edge id=":0/8_1" function="internal">
        <lane id=":0/8_1_0" index="0" speed="13.90" length="5.28" shape="-1.65,804.75 -1.25,801.95 -0.05,799.95 0.05,799.89"/>
    </edge>
    <edge id=":0/8_2" function="internal">
        <lane id=":0/8_2_0" index="0" speed="13.90" length="2.41" shape="-1.65,804.75 -0.83,803.51 0.00,803.10"/>
    </edge>
    <edge id=":0/8_9" function="internal">
        <lane id=":0/8_9_0" index="0" speed="13.90" length="5.04" shape="0.05,799.89 1.95,798.75 4.75,798.35"/>
    </edge>
    <edge id=":0/8_10" function="internal">
        <lane id=":0/8_10_0" index="0" speed="13.90" length="2.41" shape="0.00,803.10 0.83,803.51 1.65,804.75"/>
    </edge>
    <edge id=":0/8_3" function="internal">
        <lane id=":0/8_3_0" index="0" speed="13.90" length="5.00" shape="4.75,801.65 3.39,801.84 2.43,802.42 1.84,803.39 1.65,804.75"/>
    </edge>
    <edge id=":0/8_4" function="internal">