<?xml version="1.0"?>
<!-- generated on 2017-07-30 13:04:54.788804 by $Id: randomTrips.py 23999 2017-04-21 09:04:47Z behrisch $
  options: -n grid.net.xml -o grid-0p1/grid-0p1.trips.xml -r grid-0p1/grid-0p1.rou.xml -e 100 -p 0.1
-->
<routes xmlns:xsi="http://www.w3.org/2001/XMLSchema-instance" xsi:noNamespaceSchemaLocation="http://sumo.dlr.de/xsd/routes_file.xsd">
    <trip id="0" depart="0.00" from="1/7to1/8" to="0/0toleft0"/>
    <trip id="1" depart="0.10" from="left9to0/9" to="3/4to2/4"/>
    <trip id="2" depart="0.20" from="top1to1/9" to="4/6to4/7"/>
    <trip id="3" depart="0.30" from="0/6to1/6" to="2/1to2/2"/>
    <trip id="4" depart="0.40" from="1/9to2/9" to="0/1to0/2"/>
    <trip id="5" depart="0.50" from="0/2to1/2" to="3/5to4/5"/>
    <trip id="6" depart="0.60" from="1/7to0/7" to="1/3to1/2"/>
    <trip id="7" depart="0.70" from="3/9to4/9" to="0/4toleft4"/>
    <trip id="8" depart="0.80" from="bottom3to3/0" to="4/1to4/0"/>
    <trip id="9" depart="0.90" from="3/4to3/5" to="2/2to3/2"/>
    <trip id="10" depart="1.00" from="top4to4/9" to="2/2to3/2"/>
    <trip id="11" depart="1.10" from="left1to0/1" to="2/5to2/6"/>
    <trip id="12" depart="1.20" from="1/1to1/0" to="4/3to4/4"/>
    <trip id="13" depart="1.30" from="2/4to2/3" to="2/4to3/4"/>
    <trip id="14" depart="1.40" from="3/8to3/9" to="3/3to2/3"/>
    <trip id="15" depart="1.50" from="3/0to2/0" to="2/5to1/5"/>
    <trip id="16" depart="1.60" from="2/2to2/3" to="3/0tobottom3"/>
    <trip id="17" depart="1.70" from="1/0to1/1" to="0/3to0/2"/>
    <trip id="18" depart="1.80" from="2/3to2/4" to="3/2to2/2"/>
    <trip id="19" depart="1.90" from="0/4to0/3" to="1/3to1/2"/>
    <trip id="20" depart="2.00" from="0/7to0/6" to="0/4toleft4"/>
    <trip id="21" depart="2.10" from="right2to4/2" to="0/0to1/0"/>
    <trip id="22" depart="2.20" from="0/8to0/7" to="3/9to4/9"/>
    <trip id="23" depart="2.30" from="0/3to0/2" to="3/3to2/3"/>
    <trip id="24" depart="2.40" from="2/8to2/7" to="4/6to4/5"/>
    <trip id="25" depart="2.50" from="3/3to4/3" to="4/1toright1"/>
    <trip id="26" depart="2.60" from="left0to0/0" to="4/6to4/7"/>
    <trip id="27" depart="2.70" from="2/5to2/6" to="1/9to1/8"/>
    <trip id="28" depart="2.80" from="0/1to1/1" to="3/5to3/6"/>
    <trip id="29" depart="2.90" from="2/1to2/0" to="1/4to0/4"/>
    <trip id="30" depart="3.00" from="1/6to2/6" to="4/8to4/9"/>
    <trip id="31" depart="3.10" from="right6to4/6" to="3/7to4/7"/>
    <trip id="32" depart="3.20" from="2/1to2/0" to="3/9to3/8"/>
    <trip id="33" depart="3.30" from="top3to3/9" to="4/9to3/9"/>
    <trip id="34" depart="3.40" from="3/3to4/3" to="3/3to4/3"/>
    <trip id="35" depart="3.50" from="3/9to3/8" to="3/3to3/4"/>
    <trip id="36" depart="3.60" from="3/4to3/5" to="1/5to1/6"/>
    <trip id="37" depart="3.70" from="4/2to4/3" to="1/4to1/3"/>
    <trip id="38" depart="3.80" from="1/9to2/9" to="2/4to1/4"/>
    <trip id="39" depart="3.90" from="right4to4/4" to="1/8to2/8"/>
    <trip id="40" depart="4.00" from="2/4to2/3" to="2/5to3/5"/>
    <trip id="41" depart="4.10" from="3/9to4/9" to="1/5to0/5"/>
    <trip id="42" depart="4.20" from="2/9to3/9" to="4/6to3/6"/>
    <trip id="43" depart="4.30" from="top3to3/9" to="0/1to0/2"/>
    <trip id="44" depart="4.40" from="bottom2to2/0" to="1/4to1/3"/>
    <trip id="45" depart="4.50" from="1/2to0/2" to="1/5to0/5"/>
    <trip id="46" depart="4.60" from="0/3to0/2" to="2/0to3/0"/>
    <trip id="47" depart="4.70" from="2/2to2/1" to="2/0tobottom2"/>
    <trip id="48" depart="4.80" from="0/4to0/3" to="1/0to0/0"/>
    <trip id="49" depart="4.90" from="1/8to1/7" to="0/8toleft8"/>
    <trip id="50" depart="5.00" from="0/1to0/2" to="1/6to0/6"/>
    <trip id="51" depart="5.10" from="top1to1/9" to="4/9to4/8"/>
    <trip id="52" depart="5.20" from="4/7to3/7" to="4/6to3/6"/>
    <trip id="53" depart="5.30" from="4/7to4/8" to="1/7to2/7"/>
    <trip id="54" depart="5.40" from="0/6to0/7" to="3/3to4/3"/>
    <trip id="55" depart="5.50" from="4/4to3/4" to="4/3to4/4"/>
    <trip id="56" depart="5.60" from="3/3to4/3" to="2/6to2/5"/>
    <trip id="57" depart="5.70" from="3/4to2/4" to="0/3to1/3"/>
    <trip id="58" depart="5.80" from="bottom4to4/0" to="2/8to3/8"/>
    <trip id="59" depart="5.90" from="4/9to3/9" to="3/7to2/7"/>
    <trip id="60" depart="6.00" from="1/3to1/2" to="4/8to3/8"/>
    <trip id="61" depart="6.10" from="3/7to3/6" to="2/9to2/8"/>
    <trip id="62" depart="6.20" from="1/6to1/5" to="2/6to3/6"/>
    <trip id="63" depart="6.30" from="2/5to2/4" to="4/2to4/1"/>
    <trip id="64" depart="6.40" from="4/5to4/4" to="0/9to1/9"/>
    <trip id="65" depart="6.50" from="left5to0/5" to="3/7to2/7"/>
    <trip id="66" depart="6.60" from="2/8to3/8" to="3/2to4/2"/>
    <trip id="67" depart="6.70" from="2/2to3/2" to="4/0tobottom4"/>
    <trip id="68" depart="6.80" from="1/7to0/7" to="1/1to1/2"/>
    <trip id="69" depart="6.90" from="bottom3to3/0" to="3/7to3/8"/>
    <trip id="70" depart="7.00" from="0/8to0/7" to="4/9to4/8"/>
    <trip id="71" depart="7.10" from="2/5to2/6" to="0/5to1/5"/>
    <trip id="72" depart="7.20" from="4/7to3/7" to="0/9totop0"/>
    <trip id="73" depart="7.30" from="1/8to2/8" to="3/4to2/4"/>
    <trip id="74" depart="7.40" from="2/3to3/3" to="2/7to2/6"/>
    <trip id="75" depart="7.50" from="1/9to2/9" to="1/1to2/1"/>
    <trip id="76" depart="7.60" from="top4to4/9" to="1/1to1/0"/>
    <trip id="77" depart="7.70" from="1/5to1/4" to="3/3to2/3"/>
    <trip id="78" depart="7.80" from="1/1to1/2" to="3/5to3/4"/>
    <trip id="79" depart="7.90" from="2/1to1/1" to="3/3to3/4"/>
    <trip id="80" depart="8.00" from="right8to4/8" to="4/3toright3"/>
    <trip id="81" depart="8.10" from="1/6to2/6" to="4/0to3/0"/>
    <trip id="82" depart="8.20" from="4/0to3/0" to="4/6to4/7"/>
    <trip id="83" depart="8.30" from="2/8to2/7" to="0/3to1/3"/>
    <trip id="84" depart="8.40" from="4/2to4/1" to="3/0to4/0"/>
    <trip id="85" depart="8.50" from="3/6to3/7" to="3/7to2/7"/>
    <trip id="86" depart="8.60" from="3/5to2/5" to="3/8to3/7"/>
    <trip id="87" depart="8.70" from="3/8to3/7" to="3/0tobottom3"/>
    <trip id="88" depart="8.80" from="1/7to1/8" to="3/3to3/4"/>
    <trip id="89" depart="8.90" from="3/2to3/3" to="2/6to1/6"/>
    <trip id="90" depart="9.00" from="1/3to1/4" to="4/0tobottom4"/>
    <trip id="91" depart="9.10" from="2/4to2/3" to="0/3to0/2"/>
    <trip id="92" depart="9.20" from="0/5to0/6" to="2/9to1/9"/>
    <trip id="93" depart="9.30" from="4/7to3/7" to="4/8toright8"/>
    <trip id="94" depart="9.40" from="3/9to2/9" to="4/8to4/7"/>
    <trip id="95" depart="9.50" from="left1to0/1" to="3/8to2/8"/>
    <trip id="96" depart="9.60" from="2/8to1/8" to="2/9to3/9"/>
    <trip id="97" depart="9.70" from="0/2to0/1" to="3/2to3/3"/>
    <trip id="98" depart="9.80" from="2/3to2/4" to="4/2to4/3"/>
    <trip id="99" depart="9.90" from="2/8to2/7" to="2/4to3/4"/>
    <trip id="100" depart="10.00" from="0/5to0/4" to="3/4to4/4"/>
    <trip id="101" depart="10.10" from="3/1to3/0" to="4/3to3/3"/>
    <trip id="102" depart="10.20" from="top0to0/9" to="1/5to2/5"/>
    <trip id="103" depart="10.30" from="3/3to3/4" to="0/5toleft5"/>
    <trip id="104" depart="10.40" from="0/2to0/1" to="3/1to3/2"/>
    <trip id="105" depart="10.50" from="left9to0/9" to="2/6to2/7"/>
    <trip id="106" depart="10.60" from="3/8to2/8" to="4/7to3/7"/>
    <trip id="107" depart="10.70" from="2/2to3/2" to="1/3to0/3"/>
    <trip id="108" depart="10.80" from="1/6to2/6" to="1/4to1/5"/>
    <trip id="109" depart="10.90" from="0/2to1/2" to="4/6to4/7"/>
    <trip id="110" depart="11.00" from="4/8to4/7" to="3/0to3/1"/>
    <trip id="111" depart="11.10" from="2/3to2/2" to="1/8to1/7"/>
    <trip id="112" depart="11.20" from="bottom2to2/0" to="0/7to0/8"/>
    <trip id="113" depart="11.30" from="3/1to3/2" to="0/3to0/2"/>
    <trip id="114" depart="11.40" from="0/5to1/5" to="3/1to4/1"/>
    <trip id="115" depart="11.50" from="right7to4/7" to="0/8to0/9"/>
    <trip id="116" depart="11.60" from="1/0to0/0" to="0/3to1/3"/>
    <trip id="117" depart="11.70" from="4/6to4/7" to="4/1to3/1"/>
    <trip id="118" depart="11.80" from="2/6to2/5" to="4/5to4/4"/>
    <trip id="119" depart="11.90" from="4/5to4/6" to="0/6to0/7"/>
    <trip id="120" depart="12.00" from="1/0to0/0" to="3/9totop3"/>
    <trip id="121" depart="12.10" from="2/1to2/0" to="1/7to1/6"/>
    <trip id="122" depart="12.20" from="2/8to2/7" to="0/6to1/6"/>
    <trip id="123" depart="12.30" from="right3to4/3" to="0/2to1/2"/>
    <trip id="124" depart="12.40" from="0/1to1/1" to="2/8to2/7"/>
    <trip id="125" depart="12.50" from="1/8to1/9" to="4/4to3/4"/>
    <trip id="126" depart="12.60" from="3/7to2/7" to="0/6to1/6"/>
    <trip id="127" depart="12.70" from="3/6to3/7" to="1/3to2/3"/>
    <trip id="128" depart="12.80" from="3/7to4/7" to="3/2to4/2"/>
    <trip id="129" depart="12.90" from="0/1to1/1" to="2/4to2/5"/>
    <trip id="130" depart="13.00" from="1/4to2/4" to="4/7to4/6"/>
    <trip id="131" depart="13.10" from="0/7to1/7" to="1/9to2/9"/>
    <trip id="132" depart="13.20" from="1/7to1/6" to="2/8to2/7"/>
    <trip id="133" depart="13.30" from="3/5to3/6" to="1/3to2/3"/>
    <trip id="134" depart="13.40" from="left8to0/8" to="0/5to1/5"/>
    <trip id="135" depart="13.50" from="1/0to1/1" to="4/0to4/1"/>
    <trip id="136" depart="13.60" from="3/8to4/8" to="4/1toright1"/>
    <trip id="137" depart="13.70" from="0/0to0/1" to="0/6to0/5"/>
    <trip id="138" depart="13.80" from="2/8to1/8" to="3/4to2/4"/>
    <trip id="139" depart="13.90" from="1/6to0/6" to="0/4to1/4"/>
    <trip id="140" depart="14.00" from="2/2to3/2" to="2/3to2/2"/>
    <trip id="141" depart="14.10" from="top4to4/9" to="1/8to2/8"/>
    <trip id="142" depart="14.20" from="3/2to3/3" to="2/1to2/0"/>
    <trip id="143" depart="14.30" from="3/4to3/3" to="4/5to4/4"/>
    <trip id="144" depart="14.40" from="2/6to3/6" to="3/1to4/1"/>
    <trip id="145" depart="14.50" from="0/1to0/2" to="2/2to3/2"/>
    <trip id="146" depart="14.60" from="2/7to2/6" to="3/4to4/4"/>
    <trip id="147" depart="14.70" from="0/8to0/9" to="0/3to1/3"/>
    <trip id="148" depart="14.80" from="1/9to1/8" to="2/2to1/2"/>
    <trip id="149" depart="14.90" from="0/2to0/1" to="1/1to2/1"/>
    <trip id="150" depart="15.00" from="bottom2to2/0" to="2/5to2/4"/>
    <trip id="151" depart="15.10" from="2/5to3/5" to="1/3to1/2"/>
    <trip id="152" depart="15.20" from="4/1to4/0" to="3/0to4/0"/>
    <trip id="153" depart="15.30" from="4/0to4/1" to="1/3to1/2"/>
    <trip id="154" depart="15.40" from="2/1to3/1" to="1/0tobottom1"/>
    <trip id="155" depart="15.50" from="right7to4/7" to="4/5to4/4"/>
    <trip id="156" depart="15.60" from="1/0to2/0" to="1/2to2/2"/>
    <trip id="157" depart="15.70" from="bottom4to4/0" to="1/6to2/6"/>
    <trip id="158" depart="15.80" from="4/9to4/8" to="3/3to3/4"/>
    <trip id="159" depart="15.90" from="2/8to1/8" to="2/4to2/5"/>
    <trip id="160" depart="16.00" from="4/7to3/7" to="0/6to1/6"/>
    <trip id="161" depart="16.10" from="bottom3to3/0" to="4/4to3/4"/>
    <trip id="162" depart="16.20" from="1/0to1/1" to="4/8toright8"/>
    <trip id="163" depart="16.30" from="3/5to4/5" to="2/5to2/4"/>
    <trip id="164" depart="16.40" from="4/7to3/7" to="2/4to2/5"/>
    <trip id="165" depart="16.50" from="right2to4/2" to="3/0to4/0"/>
    <trip id="166" depart="16.60" from="2/8to1/8" to="0/6toleft6"/>
    <trip id="167" depart="16.70" from="right0to4/0" to="3/2to4/2"/>
    <trip id="168" depart="16.80" from="1/4to1/5" to="4/0tobottom4"/>
    <trip id="169" depart="16.90" from="2/2to3/2" to="0/6to1/6"/>
    <trip id="170" depart="17.00" from="4/5to3/5" to="2/1to2/2"/>
    <trip id="171" depart="17.10" from="1/6to1/7" to="3/0tobottom3"/>
    <trip id="172" depart="17.20" from="0/2to0/3" to="3/8to3/7"/>
    <trip id="173" depart="17.30" from="0/6to0/7" to="4/8to4/9"/>
    <trip id="174" depart="17.40" from="1/8to1/9" to="3/9to4/9"/>
    <trip id="175" depart="17.50" from="2/7to3/7" to="2/4to2/3"/>
    <trip id="176" depart="17.60" from="2/0to3/0" to="1/4to1/3"/>
    <trip id="177" depart="17.70" from="1/5to2/5" to="2/3to3/3"/>
    <trip id="178" depart="17.80" from="2/6to2/7" to="1/4to1/3"/>
    <trip id="179" depart="17.90" from="0/7to0/6" to="2/4to3/4"/>
    <trip id="180" depart="18.00" from="4/8to4/9" to="4/6toright6"/>
    <trip id="181" depart="18.10" from="3/2to4/2" to="2/4to1/4"/>
    <trip id="182" depart="18.20" from="left2to0/2" to="4/1to4/0"/>
    <trip id="183" depart="18.30" from="2/9to3/9" to="3/9to4/9"/>
    <trip id="184" depart="18.40" from="1/4to2/4" to="0/0toleft0"/>
    <trip id="185" depart="18.50" from="3/6to2/6" to="2/0to3/0"/>
    <trip id="186" depart="18.60" from="4/2to4/1" to="1/6to1/5"/>
    <trip id="187" depart="18.70" from="0/4to1/4" to="1/3to1/4"/>
    <trip id="188" depart="18.80" from="0/5to1/5" to="1/2to0/2"/>
    <trip id="189" depart="18.90" from="2/5to3/5" to="3/0to4/0"/>
    <trip id="190" depart="19.00" from="3/2to3/1" to="4/7to4/8"/>
    <trip id="191" depart="19.10" from="2/9to3/9" to="1/0to0/0"/>
    <trip id="192" depart="19.20" from="3/4to4/4" to="3/8to2/8"/>
    <trip id="193" depart="19.30" from="right6to4/6" to="3/2to3/3"/>
    <trip id="194" depart="19.40" from="1/7to1/8" to="4/5to3/5"/>
    <trip id="195" depart="19.50" from="2/6to3/6" to="4/9toright9"/>
    <trip id="196" depart="19.60" from="4/7to4/8" to="4/0to4/1"/>
    <trip id="197" depart="19.70" from="4/8to4/9" to="1/2to0/2"/>
    <trip id="198" depart="19.80" from="1/3to2/3" to="1/3to0/3"/>
    <trip id="199" depart="19.90" from="right5to4/5" to="0/7to0/8"/>
    <trip id="200" depart="20.00" from="0/2to0/3" to="4/5toright5"/>
    <trip id="201" depart="20.10" from="top1to1/9" to="2/7to1/7"/>
    <trip id="202" depart="20.20" from="3/3to4/3" to="4/4to3/4"/>
    <trip id="203" depart="20.30" from="2/6to2/5" to="3/2to4/2"/>
    <trip id="204" depart="20.40" from="4/7to4/8" to="0/3to0/4"/>
    <trip id="205" depart="20.50" from="4/0to4/1" to="2/7to3/7"/>
    <trip id="206" depart="20.60" from="3/3to3/2" to="0/0to0/1"/>
    <trip id="207" depart="20.70" from="4/7to4/6" to="3/6to4/6"/>
    <trip id="208" depart="20.80" from="2/7to1/7" to="4/1to4/2"/>
    <trip id="209" depart="20.90" from="3/4to2/4" to="4/5toright5"/>
    <trip id="210" depart="21.00" from="left1to0/1" to="4/1toright1"/>
    <trip id="211" depart="21.10" from="2/3to2/4" to="0/1to0/0"/>
    <trip id="212" depart="21.20" from="0/3to0/2" to="2/1to2/0"/>
    <trip id="213" depart="21.30" from="1/0to0/0" to="3/5to3/6"/>
    <trip id="214" depart="21.40" from="4/5to3/5" to="4/2to4/3"/>
    <trip id="215" depart="21.50" from="2/2to2/1" to="4/2to3/2"/>
    <trip id="216" depart="21.60" from="3/3to2/3" to="0/2toleft2"/>
    <trip id="217" depart="21.70" from="3/5to2/5" to="4/5to3/5"/>
    <trip id="218" depart="21.80" from="1/3to1/2" to="4/4to4/3"/>
    <trip id="219" depart="21.90" from="3/6to3/7" to="4/5to4/4"/>
    <trip id="220" depart="22.00" from="bottom1to1/0" to="4/7toright7"/>
    <trip id="221" depart="22.10" from="3/9to3/8" to="1/2to1/3"/>
    <trip id="222" depart="22.20" from="1/4to1/5" to="0/5to0/6"/>
    <trip id="223" depart="22.30" from="bottom3to3/0" to="4/7to3/7"/>
    <trip id="224" depart="22.40" from="1/7to1/6" to="0/4to0/3"/>
    <trip id="225" depart="22.50" from="top0to0/9" to="1/2to1/1"/>
    <trip id="226" depart="22.60" from="1/0to2/0" to="1/5to1/6"/>
    <trip id="227" depart="22.70" from="1/2to2/2" to="3/3to3/4"/>
    <trip id="228" depart="22.80" from="1/4to2/4" to="1/3to1/4"/>
    <trip id="229" depart="22.90" from="1/2to1/1" to="0/8toleft8"/>
    <trip id="230" depart="23.00" from="2/2to3/2" to="4/6to4/5"/>
    <trip id="231" depart="23.10" from="3/3to3/2" to="2/5to1/5"/>
    <trip id="232" depart="23.20" from="4/3to4/2" to="2/7to2/6"/>
    <trip id="233" depart="23.30" from="2/6to2/7" to="4/7to4/6"/>
    <trip id="234" depart="23.40" from="2/9to2/8" to="2/7to3/7"/>
    <trip id="235" depart="23.50" from="1/9to2/9" to="3/8to4/8"/>
    <trip id="236" depart="23.60" from="4/0to4/1" to="3/0tobottom3"/>
    <trip id="237" depart="23.70" from="2/0to1/0" to="3/4to2/4"/>
    <trip id="238" depart="23.80" from="2/9to3/9" to="0/1to1/1"/>
    <trip id="239" depart="23.90" from="1/4to2/4" to="4/5to3/5"/>
    <trip id="240" depart="24.00" from="3/7to3/6" to="1/8to2/8"/>
    <trip id="241" depart="24.10" from="1/0to0/0" to="0/2to1/2"/>
    <trip id="242" depart="24.20" from="3/4to4/4" to="2/8to2/9"/>
    <trip id="243" depart="24.30" from="3/5to3/4" to="4/7to3/7"/>
    <trip id="244" depart="24.40" from="top2to2/9" to="2/8to2/9"/>
    <trip id="245" depart="24.50" from="left9to0/9" to="0/0to0/1"/>
    <trip id="246" depart="24.60" from="0/4to0/3" to="1/2to0/2"/>
    <trip id="247" depart="24.70" from="4/3to4/2" to="3/6to3/7"/>
    <trip id="248" depart="24.80" from="3/3to3/4" to="4/9to4/8"/>
    <trip id="249" depart="24.90" from="2/3to2/2" to="2/6to3/6"/>
    <trip id="250" depart="25.00" from="2/4to2/5" to="1/3to0/3"/>
    <trip id="251" depart="25.10" from="2/1to2/2" to="1/3to1/4"/>
    <trip id="252" depart="25.20" from="0/1to0/2" to="4/2to3/2"/>
    <trip id="253" depart="25.30" from="2/3to1/3" to="2/5to1/5"/>
    <trip id="254" depart="25.40" from="2/1to1/1" to="4/5to4/6"/>
    <trip id="255" depart="25.50" from="3/5to4/5" to="4/9toright9"/>
    <trip id="256" depart="25.60" from="3/4to2/4" to="0/1toleft1"/>
    <trip id="257" depart="25.70" from="2/4to2/5" to="0/6to0/5"/>
    <trip id="258" depart="25.80" from="1/2to1/3" to="4/9to3/9"/>
    <trip id="259" depart="25.90" from="2/5to2/4" to="1/6to0/6"/>
    <trip id="260" depart="26.00" from="2/9to2/8" to="4/3to4/2"/>
    <trip id="261" depart="26.10" from="1/6to1/5" to="4/4to4/3"/>
    <trip id="262" depart="26.20" from="4/4to3/4" to="4/7to3/7"/>
    <trip id="263" depart="26.30" from="1/2to1/3" to="0/5to0/4"/>
    <trip id="264" depart="26.40" from="2/9to3/9" to="0/0to0/1"/>
    <trip id="265" depart="26.50" from="1/0to0/0" to="4/8to4/9"/>
    <trip id="266" depart="26.60" from="1/2to1/1" to="2/1to1/1"/>
    <trip id="267" depart="26.70" from="2/9to1/9" to="4/2to4/3"/>
    <trip id="268" depart="26.80" from="1/6to0/6" to="2/8to1/8"/>
    <trip id="269" depart="26.90" from="2/5to3/5" to="3/3to4/3"/>
    <trip id="270" depart="27.00" from="3/1to3/0" to="3/5to3/4"/>
    <trip id="271" depart="27.10" from="2/4to2/5" to="0/0tobottom0"/>
    <trip id="272" depart="27.20" from="2/0to2/1" to="1/9to0/9"/>
    <trip id="273" depart="27.30" from="0/0to0/1" to="3/7to4/7"/>
    <trip id="274" depart="27.40" from="right7to4/7" to="4/5toright5"/>
    <trip id="275" depart="27.50" from="3/2to3/3" to="1/3to1/4"/>
    <trip id="276" depart="27.60" from="0/3to0/2" to="3/3to2/3"/>
    <trip id="277" depart="27.70" from="2/2to2/3" to="2/8to2/7"/>
    <trip id="278" depart="27.80" from="3/8to3/9" to="2/3to2/4"/>
    <trip id="279" depart="27.90" from="2/2to2/1" to="1/8to2/8"/>
    <trip id="280" depart="28.00" from="1/5to1/4" to="3/8to2/8"/>
    <trip id="281" depart="28.10" from="3/3to3/2" to="3/3to4/3"/>
    <trip id="282" depart="28.20" from="1/1to1/2" to="4/2to4/1"/>
    <trip id="283" depart="28.30" from="2/3to1/3" to="0/0toleft0"/>
    <trip id="284" depart="28.40" from="4/4to3/4" to="3/1to4/1"/>
    <trip id="285" depart="28.50" from="left7to0/7" to="3/9to2/9"/>
    <trip id="286" depart="28.60" from="0/1to0/2" to="4/3to3/3"/>
    <trip id="287" depart="28.70" from="1/7to1/8" to="3/8to3/7"/>
    <trip id="288" depart="28.80" from="1/7to1/8" to="3/6to3/5"/>
    <trip id="289" depart="28.90" from="3/5to4/5" to="1/0to1/1"/>
    <trip id="290" depart="29.00" from="1/4to0/4" to="1/3to0/3"/>
    <trip id="291" depart="29.10" from="4/1to3/1" to="1/6to1/7"/>
    <trip id="292" depart="29.20" from="0/3to1/3" to="4/3to4/4"/>
    <trip id="293" depart="29.30" from="1/8to1/9" to="4/9to3/9"/>
    <trip id="294" depart="29.40" from="3/4to3/3" to="3/3to2/3"/>
    <trip id="295" depart="29.50" from="3/4to3/3" to="1/5to1/4"/>
    <trip id="296" depart="29.60" from="4/5to3/5" to="2/6to2/7"/>
    <trip id="297" depart="29.70" from="4/7to4/6" to="1/2to2/2"/>
    <trip id="298" depart="29.80" from="3/8to3/7" to="2/6to1/6"/>
    <trip id="299" depart="29.90" from="4/4to3/4" to="2/2to2/1"/>
    <trip id="300" depart="30.00" from="2/5to3/5" to="1/6to1/7"/>
    <trip id="301" depart="30.10" from="left8to0/8" to="1/9to0/9"/>
    <trip id="302" depart="30.20" from="3/4to2/4" to="1/3to1/2"/>
    <trip id="303" depart="30.30" from="1/9to1/8" to="3/5to4/5"/>
    <trip id="304" depart="30.40" from="1/0to0/0" to="1/3to2/3"/>
    <trip id="305" depart="30.50" from="3/4to4/4" to="4/6toright6"/>
    <trip id="306" depart="30.60" from="2/2to2/3" to="0/5to1/5"/>
    <trip id="307" depart="30.70" from="0/8to1/8" to="0/8to0/9"/>
    <trip id="308" depart="30.80" from="2/9to1/9" to="3/0to3/1"/>
    <trip id="309" depart="30.90" from="0/0to0/1" to="0/2to0/3"/>
    <trip id="310" depart="31.00" from="1/7to1/8" to="4/5to4/4"/>
    <trip id="311" depart="31.10" from="4/1to4/0" to="3/6to3/5"/>
    <trip id="312" depart="31.20" from="0/1to0/0" to="3/6to2/6"/>
    <trip id="313" depart="31.30" from="2/4to3/4" to="1/4to1/5"/>
    <trip id="314" depart="31.40" from="2/1to2/0" to="0/9totop0"/>
    <trip id="315" depart="31.50" from="2/0to3/0" to="4/9to4/8"/>
    <trip id="316" depart="31.60" from="2/8to2/7" to="0/9to0/8"/>
    <trip id="317" depart="31.70" from="bottom4to4/0" to="4/1toright1"/>
    <trip id="318" depart="31.80" from="4/0to4/1" to="2/3to2/2"/>
    <trip id="319" depart="31.90" from="2/8to2/7" to="3/3to3/2"/>
    <trip id="320" depart="32.00" from="3/0to4/0" to="4/1toright1"/>
    <trip id="321" depart="32.10" from="3/3to4/3" to="3/2to3/1"/>
    <trip id="322" depart="32.20" from="2/8to2/7" to="1/4to0/4"/>
    <trip id="323" depart="32.30" from="1/8to0/8" to="2/8to2/7"/>
    <trip id="324" depart="32.40" from="3/3to2/3" to="4/2to4/1"/>
    <trip id="325" depart="32.50" from="3/2to3/1" to="3/5to3/4"/>
    <trip id="326" depart="32.60" from="2/2to2/1" to="0/4to0/3"/>
    <trip id="327" depart="32.70" from="1/7to1/6" to="1/1to1/2"/>
    <trip id="328" depart="32.80" from="3/6to3/7" to="3/2to3/3"/>
    <trip id="329" depart="32.90" from="3/3to3/4" to="4/7to3/7"/>
    <trip id="330" depart="33.00" from="left8to0/8" to="0/3to0/2"/>
    <trip id="331" depart="33.10" from="1/3to0/3" to="0/2to0/1"/>
    <trip id="332" depart="33.20" from="right6to4/6" to="2/4to1/4"/>
    <trip id="333" depart="33.30" from="4/1to4/0" to="4/8to3/8"/>
    <trip id="334" depart="33.40" from="3/5to3/6" to="3/2to2/2"/>
    <trip id="335" depart="33.50" from="3/2to4/2" to="2/1to2/2"/>
    <trip id="336" depart="33.60" from="4/2to4/3" to="1/6to2/6"/>
    <trip id="337" depart="33.70" from="3/0to3/1" to="0/0tobottom0"/>
    <trip id="338" depart="33.80" from="0/3to0/2" to="3/2to2/2"/>
    <trip id="339" depart="33.90" from="2/6to3/6" to="1/0to2/0"/>
    <trip id="340" depart="34.00" from="0/4to0/5" to="1/5to1/6"/>
    <trip id="341" depart="34.10" from="4/5to3/5" to="3/3to3/4"/>
    <trip id="342" depart="34.20" from="2/3to1/3" to="0/4to1/4"/>
    <trip id="343" depart="34.30" from="1/4to0/4" to="3/9to4/9"/>
    <trip id="344" depart="34.40" from="0/3to1/3" to="4/1to4/2"/>
    <trip id="345" depart="34.50" from="1/6to0/6" to="1/8to1/9"/>
    <trip id="346" depart="34.60" from="2/4to3/4" to="2/1to2/2"/>
    <trip id="347" depart="34.70" from="1/3to2/3" to="2/5to1/5"/>
    <trip id="348" depart="34.80" from="2/2to2/3" to="3/8to3/9"/>
    <trip id="349" depart="34.90" from="right0to4/0" to="2/2to2/3"/>
    <trip id="350" depart="35.00" from="3/8to3/9" to="2/3to1/3"/>
    <trip id="351" depart="35.10" from="left8to0/8" to="1/8to0/8"/>
    <trip id="352" depart="35.20" from="0/0to0/1" to="4/0to4/1"/>
    <trip id="353" depart="35.30" from="4/5to4/4" to="3/9to3/8"/>
    <trip id="354" depart="35.40" from="1/0to2/0" to="1/0to0/0"/>
    <trip id="355" depart="35.50" from="0/2to0/3" to="4/9toright9"/>
    <trip id="356" depart="35.60" from="1/5to2/5" to="4/0toright0"/>
    <trip id="357" depart="35.70" from="0/5to1/5" to="0/8toleft8"/>
    <trip id="358" depart="35.80" from="4/2to4/1" to="4/6toright6"/>
    <trip id="359" depart="35.90" from="3/3to3/2" to="2/5to2/4"/>
    <trip id="360" depart="36.00" from="0/4to0/5" to="4/2to4/3"/>
    <trip id="361" depart="36.10" from="bottom1to1/0" to="0/3to1/3"/>
    <trip id="362" depart="36.20" from="3/2to2/2" to="0/0toleft0"/>
    <trip id="363" depart="36.30" from="0/2to1/2" to="2/9to1/9"/>
    <trip id="364" depart="36.40" from="2/5to3/5" to="1/3to1/4"/>
    <trip id="365" depart="36.50" from="0/1to1/1" to="4/5to4/6"/>
    <trip id="366" depart="36.60" from="1/5to0/5" to="4/1to3/1"/>
    <trip id="367" depart="36.70" from="2/0to1/0" to="2/2to2/1"/>
    <trip id="368" depart="36.80" from="1/2to1/1" to="3/7to3/6"/>
    <trip id="369" depart="36.90" from="4/0to3/0" to="2/8to2/7"/>
    <trip id="370" depart="37.00" from="4/4to4/5" to="3/0to2/0"/>
    <trip id="371" depart="37.10" from="1/6to1/7" to="0/6to0/7"/>
    <trip id="372" depart="37.20" from="4/2to4/3" to="1/5to0/5"/>
    <trip id="373" depart="37.30" from="1/2to2/2" to="4/9totop4"/>
    <trip id="374" depart="37.40" from="4/1to3/1" to="1/9to2/9"/>
    <trip id="375" depart="37.50" from="4/3to3/3" to="3/6to2/6"/>
    <trip id="376" depart="37.60" from="1/9to0/9" to="1/3to1/2"/>
    <trip id="377" depart="37.70" from="1/4to1/3" to="3/7to3/8"/>
    <trip id="378" depart="37.80" from="4/1to4/0" to="2/6to1/6"/>
    <trip id="379" depart="37.90" from="0/5to0/4" to="3/3to3/4"/>
    <trip id="380" depart="38.00" from="0/1to0/2" to="0/4to0/5"/>
    <trip id="381" depart="38.10" from="1/4to1/3" to="4/8to4/7"/>
    <trip id="382" depart="38.20" from="0/5to0/6" to="2/2to1/2"/>
    <trip id="383" depart="38.30" from="left0to0/0" to="0/2toleft2"/>
    <trip id="384" depart="38.40" from="2/8to2/9" to="1/2to1/3"/>
    <trip id="385" depart="38.50" from="4/3to4/4" to="2/4to2/5"/>
    <trip id="386" depart="38.60" from="right0to4/0" to="2/1to1/1"/>
    <trip id="387" depart="38.70" from="4/7to3/7" to="4/8to4/7"/>
    <trip id="388" depart="38.80" from="2/5to2/6" to="1/3to0/3"/>
    <trip id="389" depart="38.90" from="0/9to0/8" to="3/5to3/4"/>
    <trip id="390" depart="39.00" from="1/7to0/7" to="1/0to1/1"/>
    <trip id="391" depart="39.10" from="right4to4/4" to="1/6to1/7"/>
    <trip id="392" depart="39.20" from="1/9to2/9" to="4/4to4/3"/>
    <trip id="393" depart="39.30" from="2/6to1/6" to="1/7to1/6"/>
    <trip id="394" depart="39.40" from="3/7to2/7" to="0/9to0/8"/>
    <trip id="395" depart="39.50" from="2/3to2/4" to="1/4to1/5"/>
    <trip id="396" depart="39.60" from="right2to4/2" to="4/6to4/5"/>
    <trip id="397" depart="39.70" from="3/3to2/3" to="1/8to1/9"/>
    <trip id="398" depart="39.80" from="0/0to1/0" to="2/1to2/0"/>
    <trip id="399" depart="39.90" from="4/7to4/8" to="1/1to1/2"/>
    <trip id="400" depart="40.00" from="4/5to4/4" to="0/3toleft3"/>
    <trip id="401" depart="40.10" from="right0to4/0" to="4/1to4/0"/>
    <trip id="402" depart="40.20" from="2/3to3/3" to="3/6to3/5"/>
    <trip id="403" depart="40.30" from="1/2to1/3" to="2/7to1/7"/>
    <trip id="404" depart="40.40" from="0/6to0/5" to="4/2to3/2"/>
    <trip id="405" depart="40.50" from="1/0to2/0" to="3/1to4/1"/>
    <trip id="406" depart="40.60" from="3/4to3/3" to="2/8to2/9"/>
    <trip id="407" depart="40.70" from="1/0to1/1" to="1/3to2/3"/>
    <trip id="408" depart="40.80" from="3/1to3/2" to="4/5to3/5"/>
    <trip id="409" depart="40.90" from="0/7to0/8" to="3/2to4/2"/>
    <trip id="410" depart="41.00" from="1/0to2/0" to="2/1to3/1"/>
    <trip id="411" depart="41.10" from="4/8to4/9" to="2/4to2/5"/>
    <trip id="412" depart="41.20" from="2/5to2/6" to="0/2to0/3"/>
    <trip id="413" depart="41.30" from="3/3to3/4" to="1/1to1/0"/>
    <trip id="414" depart="41.40" from="left6to0/6" to="3/4to4/4"/>
    <trip id="415" depart="41.50" from="0/7to0/6" to="1/8to0/8"/>
    <trip id="416" depart="41.60" from="2/8to1/8" to="3/2to4/2"/>
    <trip id="417" depart="41.70" from="2/4to3/4" to="0/9to1/9"/>
    <trip id="418" depart="41.80" from="2/3to1/3" to="3/0tobottom3"/>
    <trip id="419" depart="41.90" from="1/2to1/1" to="1/1to0/1"/>
    <trip id="420" depart="42.00" from="3/8to3/7" to="3/3to3/2"/>
    <trip id="421" depart="42.10" from="2/3to3/3" to="2/4to1/4"/>
    <trip id="422" depart="42.20" from="top2to2/9" to="0/3to1/3"/>
    <trip id="423" depart="42.30" from="top2to2/9" to="3/6to4/6"/>
    <trip id="424" depart="42.40" from="0/3to0/2" to="2/2to1/2"/>
    <trip id="425" depart="42.50" from="right5to4/5" to="2/8to2/9"/>
    <trip id="426" depart="42.60" from="3/5to3/4" to="3/4to4/4"/>
    <trip id="427" depart="42.70" from="0/3to0/4" to="1/3to2/3"/>
    <trip id="428" depart="42.80" from="1/8to1/7" to="2/8to1/8"/>
    <trip id="429" depart="42.90" from="3/0to2/0" to="2/8to2/9"/>
    <trip id="430" depart="43.00" from="3/8to2/8" to="0/9toleft9"/>
    <trip id="431" depart="43.10" from="1/6to1/7" to="4/0to3/0"/>
    <trip id="432" depart="43.20" from="0/9to1/9" to="2/4to2/5"/>
    <trip id="433" depart="43.30" from="right1to4/1" to="2/9totop2"/>
    <trip id="434" depart="43.40" from="2/6to3/6" to="0/1to1/1"/>
    <trip id="435" depart="43.50" from="right4to4/4" to="3/7to4/7"/>
    <trip id="436" depart="43.60" from="3/6to3/5" to="1/6to1/5"/>
    <trip id="437" depart="43.70" from="4/7to4/6" to="2/3to1/3"/>
    <trip id="438" depart="43.80" from="0/0to1/0" to="3/3to2/3"/>
    <trip id="439" depart="43.90" from="1/6to1/7" to="2/0to2/1"/>
    <trip id="440" depart="44.00" from="4/2to4/3" to="2/7to3/7"/>
    <trip id="441" depart="44.10" from="1/3to0/3" to="1/9to1/8"/>
    <trip id="442" depart="44.20" from="4/9to3/9" to="4/7toright7"/>
    <trip id="443" depart="44.30" from="2/8to1/8" to="2/3to1/3"/>
    <trip id="444" depart="44.40" from="1/6to1/5" to="4/7toright7"/>
    <trip id="445" depart="44.50" from="4/0to3/0" to="1/1to1/0"/>
    <trip id="446" depart="44.60" from="2/2to2/3" to="2/2to2/1"/>