<?xml version="1.0"?>
<!-- generated on 2017-07-30 13:07:42.859422 by $Id: randomTrips.py 23999 2017-04-21 09:04:47Z behrisch $
  options: -n grid.net.xml -o grid-10p0/grid-10p0.trips.xml -r grid-10p0/grid-10p0.rou.xml -e 100 -p 10.0
-->
<routes xmlns:xsi="http://www.w3.org/2001/XMLSchema-instance" xsi:noNamespaceSchemaLocation="http://sumo.dlr.de/xsd/routes_file.xsd">
    <trip id="0" depart="0.00" from="1/9to0/9" to="4/8to4/9"/>
    <trip id="1" depart="10.00" from="1/1to1/2" to="1/5to1/6"/>
    <trip id="2" depart="20.00" from="2/9to1/9" to="4/0to3/0"/>
    <trip id="3" depart="30.00" from="left4to0/4" to="1/2to2/2"/>
    <trip id="4" depart="40.00" from="4/4to4/3" to="0/4to0/3"/>
    <trip id="5" depart="50.00" from="3/4to4/4" to="0/0to1/0"/>
    <trip id="6" depart="60.00" from="0/7to1/7" to="4/5toright5"/>
    <trip id="7" depart="70.00" from="3/4to2/4" to="0/9totop0"/>
    <trip id="8" depart="80.00" from="3/8to3/9" to="4/7to4/8"/>
    <trip id="9" depart="90.00" from="1/2to2/2" to="0/6to0/5"/>
</routes>
