<configuration>
    <input>
        <net-file value="bolognaringway.net.xml"/>
        <route-files value="bolognaringway.rou.xml"/>
    </input>
    <time>
        <begin value="0"/>
        <end value="3600"/>
        <step-length value="0.01"/>
    </time>
<remote-port value="64341"/><seed value="0"/><random value="false"/></configuration>