<configuration>
  <input>
    <net-file value="manhattan.net.xml"/>
    <route-files value="manhattan.rou.xml"/>
    <additional-files value="manhattan.add.xml manhattan.poly.xml"/>
  </input>
  <time>
    <begin value="0"/>
    <end value="500"/>
    <step-length value="0.1"/>
  </time>
  <gui_only>
    <gui-settings-file value="manhattan.gui-settings.xml"/>
  </gui_only>
</configuration>
