<?xml version="1.0" encoding="UTF-8"?>

<!-- generated on Fri Aug 18 13:03:05 2017 by SUMO netgenerate Version 0.30.0
<?xml version="1.0" encoding="UTF-8"?>

<configuration xmlns:xsi="http://www.w3.org/2001/XMLSchema-instance" xsi:noNamespaceSchemaLocation="http://sumo.dlr.de/xsd/netgenerateConfiguration.xsd">

    <grid_network>
        <grid value="true"/>
        <grid.x-number value="11"/>
        <grid.y-number value="11"/>
        <grid.x-length value="150"/>
        <grid.y-length value="150"/>
    </grid_network>

    <output>
        <output-file value="grid.net.xml"/>
    </output>

</configuration>
-->

<net version="0.27" xmlns:xsi="http://www.w3.org/2001/XMLSchema-instance" xsi:noNamespaceSchemaLocation="http://sumo.dlr.de/xsd/net_file.xsd">

    <location netOffset="0.00,0.00" convBoundary="0.00,0.00,1500.00,1500.00" origBoundary="0.00,0.00,1500.00,1500.00" projParameter="!"/>

    <edge id=":0/0_0" function="internal">
        <lane id=":0/0_0_0" index="0" speed="13.90" length="7.90" shape="-1.65,3.25 -1.34,1.11 -0.43,-0.43 1.11,-1.34 3.25,-1.65"/>
    </edge>
    <edge id=":0/0_1" function="internal">
        <lane id=":0/0_1_0" index="0" speed="13.90" length="2.80" shape="-1.65,3.25 -0.82,2.01 0.00,1.60 0.35,1.77"/>
    </edge>
    <edge id=":0/0_4" function="internal">
        <lane id=":0/0_4_0" index="0" speed="13.90" length="2.02" shape="0.35,1.77 0.83,2.01 1.65,3.25"/>
    </edge>
    <edge id=":0/0_2" function="internal">
        <lane id=":0/0_2_0" index="0" speed="13.90" length="2.58" shape="3.25,1.65 2.55,1.75 2.05,2.05 1.75,2.55 1.65,3.25"/>
    </edge>
    <edge id=":0/0_3" function="internal">
        <lane id=":0/0_3_0" index="0" speed="13.90" length="2.20" shape="3.25,1.65 2.01,0.82 1.69,0.19"/>
    </edge>
    <edge id=":0/0_5" function="internal">
        <lane id=":0/0_5_0" index="0" speed="13.90" length="2.62" shape="1.69,0.19 1.60,-0.00 2.01,-0.83 3.25,-1.65"/>
    </edge>
    <edge id=":0/1_0" function="internal">
        <lane id=":0/1_0_0" index="0" speed="13.90" length="9.50" shape="-1.65,154.75 -1.65,145.25"/>
    </edge>
    <edge id=":0/1_1" function="internal">
        <lane id=":0/1_1_0" index="0" speed="13.90" length="5.28" shape="-1.65,154.75 -1.25,151.95 -0.05,149.95 0.05,149.89"/>
    </edge>
    <edge id=":0/1_2" function="internal">
        <lane id=":0/1_2_0" index="0" speed="13.90" length="2.41" shape="-1.65,154.75 -0.83,153.51 0.00,153.10"/>
    </edge>
    <edge id=":0/1_9" function="internal">
        <lane id=":0/1_9_0" index="0" speed="13.90" length="5.04" shape="0.05,149.89 1.95,148.75 4.75,148.35"/>
    </edge>
    <edge id=":0/1_10" function="internal">
        <lane id=":0/1_10_0" index="0" speed="13.90" length="2.41" shape="0.00,153.10 0.83,153.51 1.65,154.75"/>
    </edge>
    <edge id=":0/1_3" function="internal">
        <lane id=":0/1_3_0" index="0" speed="13.90" length="5.00" shape="4.75,151.65 3.39,151.84 2.43,152.43 1.84,153.39 1.65,154.75"/>
    </edge>
    <edge id=":0/1_4" function="internal">
        <lane id=":0/1_4_0" index="0" speed="13.90" length="10.32" shape="4.75,151.65 1.95,151.25 -0.05,150.05 -1.25,148.05 -1.65,145.25"/>
    </edge>
    <edge id=":0/1_5" function="internal">
        <lane id=":0/1_5_0" index="0" speed="13.90" length="4.82" shape="4.75,151.65 3.51,150.83 3.10,150.00 3.51,149.18 4.75,148.35"/>
    </edge>
    <edge id=":0/1_6" function="internal">
        <lane id=":0/1_6_0" index="0" speed="13.90" length="5.00" shape="1.65,145.25 1.84,146.61 2.42,147.57 3.39,148.16 4.75,148.35"/>
    </edge>
    <edge id=":0/1_7" function="internal">
        <lane id=":0/1_7_0" index="0" speed="13.90" length="9.50" shape="1.65,145.25 1.65,154.75"/>
    </edge>
    <edge id=":0/1_8" function="internal">
        <lane id=":0/1_8_0" index="0" speed="13.90" length="2.41" shape="1.65,145.25 0.83,146.49 0.00,146.90"/>
    </edge>
    <edge id=":0/1_11" function="internal">
        <lane id=":0/1_11_0" index="0" speed="13.90" length="2.41" shape="0.00,146.90 -0.83,146.49 -1.65,145.25"/>
    </edge>
    <edge id=":0/10_0" function="internal">
        <lane id=":0/10_0_0" index="0" speed="13.90" length="7.90" shape="3.25,1501.65 1.11,1501.34 -0.43,1500.43 -1.34,1498.89 -1.65,1496.75"/>
    </edge>
    <edge id=":0/10_1" function="internal">
        <lane id=":0/10_1_0" index="0" speed="13.90" length="2.80" shape="3.25,1501.65 2.01,1500.82 1.60,1500.00 1.77,1499.65"/>
    </edge>
    <edge id=":0/10_4" function="internal">
        <lane id=":0/10_4_0" index="0" speed="13.90" length="2.02" shape="1.77,1499.65 2.01,1499.17 3.25,1498.35"/>
    </edge>
    <edge id=":0/10_2" function="internal">
        <lane id=":0/10_2_0" index="0" speed="13.90" length="2.58" shape="1.65,1496.75 1.75,1497.45 2.05,1497.95 2.55,1498.25 3.25,1498.35"/>
    </edge>
    <edge id=":0/10_3" function="internal">
        <lane id=":0/10_3_0" index="0" speed="13.90" length="2.20" shape="1.65,1496.75 0.83,1497.99 0.19,1498.31"/>
    </edge>
    <edge id=":0/10_5" function="internal">
        <lane id=":0/10_5_0" index="0" speed="13.90" length="2.62" shape="0.19,1498.31 0.00,1498.40 -0.83,1497.99 -1.65,1496.75"/>
    </edge>
    <edge id=":0/2_0" function="internal">
        <lane id=":0/2_0_0" index="0" speed="13.90" length="9.50" shape="-1.65,304.75 -1.65,295.25"/>
    </edge>
    <edge id=":0/2_1" function="internal">
        <lane id=":0/2_1_0" index="0" speed="13.90" length="5.28" shape="-1.65,304.75 -1.25,301.95 -0.05,299.95 0.05,299.89"/>
    </edge>
    <edge id=":0/2_2" function="internal">
        <lane id=":0/2_2_0" index="0" speed="13.90" length="2.41" shape="-1.65,304.75 -0.83,303.51 0.00,303.10"/>
    </edge>
    <edge id=":0/2_9" function="internal">
        <lane id=":0/2_9_0" index="0" speed="13.90" length="5.04" shape="0.05,299.89 1.95,298.75 4.75,298.35"/>
    </edge>
    <edge id=":0/2_10" function="internal">
        <lane id=":0/2_10_0" index="0" speed="13.90" length="2.41" shape="0.00,303.10 0.83,303.51 1.65,304.75"/>
    </edge>
    <edge id=":0/2_3" function="internal">
        <lane id=":0/2_3_0" index="0" speed="13.90" length="5.00" shape="4.75,301.65 3.39,301.84 2.43,302.42 1.84,303.39 1.65,304.75"/>
    </edge>
    <edge id=":0/2_4" function="internal">
        <lane id=":0/2_4_0" index="0" speed="13.90" length="10.32" shape="4.75,301.65 1.95,301.25 -0.05,300.05 -1.25,298.05 -1.65,295.25"/>
    </edge>
    <edge id=":0/2_5" function="internal">
        <lane id=":0/2_5_0" index="0" speed="13.90" length="4.82" shape="4.75,301.65 3.51,300.83 3.10,300.00 3.51,299.18 4.75,298.35"/>
    </edge>
    <edge id=":0/2_6" function="internal">
        <lane id=":0/2_6_0" index="0" speed="13.90" length="5.00" shape="1.65,295.25 1.84,296.61 2.42,297.58 3.39,298.16 4.75,298.35"/>
    </edge>
    <edge id=":0/2_7" function="internal">
        <lane id=":0/2_7_0" index="0" speed="13.90" length="9.50" shape="1.65,295.25 1.65,304.75"/>
    </edge>
    <edge id=":0/2_8" function="internal">
        <lane id=":0/2_8_0" index="0" speed="13.90" length="2.41" shape="1.65,295.25 0.83,296.49 0.00,296.90"/>
    </edge>
    <edge id=":0/2_11" function="internal">
        <lane id=":0/2_11_0" index="0" speed="13.90" length="2.41" shape="0.00,296.90 -0.83,296.49 -1.65,295.25"/>
    </edge>
    <edge id=":0/3_0" function="internal">
        <lane id=":0/3_0_0" index="0" speed="13.90" length="9.50" shape="-1.65,454.75 -1.65,445.25"/>
    </edge>
    <edge id=":0/3_1" function="internal">
        <lane id=":0/3_1_0" index="0" speed="13.90" length="5.28" shape="-1.65,454.75 -1.25,451.95 -0.05,449.95 0.05,449.89"/>
    </edge>
    <edge id=":0/3_2" function="internal">
        <lane id=":0/3_2_0" index="0" speed="13.90" length="2.41" shape="-1.65,454.75 -0.83,453.51 0.00,453.10"/>
    </edge>
    <edge id=":0/3_9" function="internal">
        <lane id=":0/3_9_0" index="0" speed="13.90" length="5.04" shape="0.05,449.89 1.95,448.75 4.75,448.35"/>
    </edge>
    <edge id=":0/3_10" function="internal">
        <lane id=":0/3_10_0" index="0" speed="13.90" length="2.41" shape="0.00,453.10 0.83,453.51 1.65,454.75"/>
    </edge>
    <edge id=":0/3_3" function="internal">
        <lane id=":0/3_3_0" index="0" speed="13.90" length="5.00" shape="4.75,451.65 3.39,451.84 2.43,452.42 1.84,453.39 1.65,454.75"/>
    </edge>
    <edge id=":0/3_4" function="internal">
        <lane id=":0/3_4_0" index="0" speed="13.90" length="10.32" shape="4.75,451.65 1.95,451.25 -0.05,450.05 -1.25,448.05 -1.65,445.25"/>
    </edge>
    <edge id=":0/3_5" function="internal">
        <lane id=":0/3_5_0" index="0" speed="13.90" length="4.82" shape="4.75,451.65 3.51,450.83 3.10,450.00 3.51,449.18 4.75,448.35"/>
    </edge>
    <edge id=":0/3_6" function="internal">
        <lane id=":0/3_6_0" index="0" speed="13.90" length="5.00" shape="1.65,445.25 1.84,446.61 2.42,447.58 3.39,448.16 4.75,448.35"/>
    </edge>
    <edge id=":0/3_7" function="internal">
        <lane id=":0/3_7_0" index="0" speed="13.90" length="9.50" shape="1.65,445.25 1.65,454.75"/>
    </edge>
    <edge id=":0/3_8" function="internal">
        <lane id=":0/3_8_0" index="0" speed="13.90" length="2.41" shape="1.65,445.25 0.83,446.49 0.00,446.90"/>
    </edge>
    <edge id=":0/3_11" function="internal">
        <lane id=":0/3_11_0" index="0" speed="13.90" length="2.41" shape="0.00,446.90 -0.83,446.49 -1.65,445.25"/>
    </edge>
    <edge id=":0/4_0" function="internal">
        <lane id=":0/4_0_0" index="0" speed="13.90" length="9.50" shape="-1.65,604.75 -1.65,595.25"/>
    </edge>
    <edge id=":0/4_1" function="internal">
        <lane id=":0/4_1_0" index="0" speed="13.90" length="5.28" shape="-1.65,604.75 -1.25,601.95 -0.05,599.95 0.05,599.89"/>
    </edge>
    <edge id=":0/4_2" function="internal">
        <lane id=":0/4_2_0" index="0" speed="13.90" length="2.41" shape="-1.65,604.75 -0.83,603.51 0.00,603.10"/>
    </edge>
    <edge id=":0/4_9" function="internal">
        <lane id=":0/4_9_0" index="0" speed="13.90" length="5.04" shape="0.05,599.89 1.95,598.75 4.75,598.35"/>
    </edge>
    <edge id=":0/4_10" function="internal">
        <lane id=":0/4_10_0" index="0" speed="13.90" length="2.41" shape="0.00,603.10 0.83,603.51 1.65,604.75"/>
    </edge>
    <edge id=":0/4_3" function="internal">
        <lane id=":0/4_3_0" index="0" speed="13.90" length="5.00" shape="4.75,601.65 3.39,601.84 2.43,602.42 1.84,603.39 1.65,604.75"/>
    </edge>
    <edge id=":0/4_4" function="internal">
        <lane id=":0/4_4_0" index="0" speed="13.90" length="10.32" shape="4.75,601.65 1.95,601.25 -0.05,600.05 -1.25,598.05 -1.65,595.25"/>
    </edge>
    <edge id=":0/4_5" function="internal">
        <lane id=":0/4_5_0" index="0" speed="13.90" length="4.82" shape="4.75,601.65 3.51,600.82 3.10,600.00 3.51,599.17 4.75,598.35"/>
    </edge>
    <edge id=":0/4_6" function="internal">
        <lane id=":0/4_6_0" index="0" speed="13.90" length="5.00" shape="1.65,595.25 1.84,596.61 2.42,597.58 3.39,598.16 4.75,598.35"/>
    </edge>
    <edge id=":0/4_7" function="internal">
        <lane id=":0/4_7_0" index="0" speed="13.90" length="9.50" shape="1.65,595.25 1.65,604.75"/>
    </edge>
    <edge id=":0/4_8" function="internal">
        <lane id=":0/4_8_0" index="0" speed="13.90" length="2.41" shape="1.65,595.25 0.83,596.49 0.00,596.90"/>
    </edge>
    <edge id=":0/4_11" function="internal">
        <lane id=":0/4_11_0" index="0" speed="13.90" length="2.41" shape="0.00,596.90 -0.83,596.49 -1.65,595.25"/>
    </edge>
    <edge id=":0/5_0" function="internal">
        <lane id=":0/5_0_0" index="0" speed="13.90" length="9.50" shape="-1.65,754.75 -1.65,745.25"/>
    </edge>
    <edge id=":0/5_1" function="internal">
        <lane id=":0/5_1_0" index="0" speed="13.90" length="5.28" shape="-1.65,754.75 -1.25,751.95 -0.05,749.95 0.05,749.89"/>
    </edge>
    <edge id=":0/5_2" function="internal">
        <lane id=":0/5_2_0" index="0" speed="13.90" length="2.41" shape="-1.65,754.75 -0.83,753.51 0.00,753.10"/>
    </edge>
    <edge id=":0/5_9" function="internal">
        <lane id=":0/5_9_0" index="0" speed="13.90" length="5.04" shape="0.05,749.89 1.95,748.75 4.75,748.35"/>
    </edge>
    <edge id=":0/5_10" function="internal">
        <lane id=":0/5_10_0" index="0" speed="13.90" length="2.41" shape="0.00,753.10 0.83,753.51 1.65,754.75"/>
    </edge>
    <edge id=":0/5_3" function="internal">
        <lane id=":0/5_3_0" index="0" speed="13.90" length="5.00" shape="4.75,751.65 3.39,751.84 2.43,752.42 1.84,753.39 1.65,754.75"/>
    </edge>
    <edge id=":0/5_4" function="internal">
        <lane id=":0/5_4_0" index="0" speed="13.90" length="10.32" shape="4.75,751.65 1.95,751.25 -0.05,750.05 -1.25,748.05 -1.65,745.25"/>
    </edge>
    <edge id=":0/5_5" function="internal">
        <lane id=":0/5_5_0" index="0" speed="13.90" length="4.82" shape="4.75,751.65 3.51,750.82 3.10,750.00 3.51,749.17 4.75,748.35"/>
    </edge>
    <edge id=":0/5_6" function="internal">
        <lane id=":0/5_6_0" index="0" speed="13.90" length="5.00" shape="1.65,745.25 1.84,746.61 2.42,747.57 3.39,748.16 4.75,748.35"/>
    </edge>
    <edge id=":0/5_7" function="internal">
        <lane id=":0/5_7_0" index="0" speed="13.90" length="9.50" shape="1.65,745.25 1.65,754.75"/>
    </edge>
    <edge id=":0/5_8" function="internal">
        <lane id=":0/5_8_0" index="0" speed="13.90" length="2.41" shape="1.65,745.25 0.83,746.49 0.00,746.90"/>
    </edge>
    <edge id=":0/5_11" function="internal">
        <lane id=":0/5_11_0" index="0" speed="13.90" length="2.41" shape="0.00,746.90 -0.83,746.49 -1.65,745.25"/>
    </edge>
    <edge id=":0/6_0" function="internal">
        <lane id=":0/6_0_0" index="0" speed="13.90" length="9.50" shape="-1.65,904.75 -1.65,895.25"/>
    </edge>
    <edge id=":0/6_1" function="internal">
        <lane id=":0/6_1_0" index="0" speed="13.90" length="5.28" shape="-1.65,904.75 -1.25,901.95 -0.05,899.95 0.05,899.89"/>
    </edge>
    <edge id=":0/6_2" function="internal">
        <lane id=":0/6_2_0" index="0" speed="13.90" length="2.41" shape="-1.65,904.75 -0.83,903.51 0.00,903.10"/>
    </edge>
    <edge id=":0/6_9" function="internal">
        <lane id=":0/6_9_0" index="0" speed="13.90" length="5.04" shape="0.05,899.89 1.95,898.75 4.75,898.35"/>
    </edge>
    <edge id=":0/6_10" function="internal">
        <lane id=":0/6_10_0" index="0" speed="13.90" length="2.41" shape="0.00,903.10 0.83,903.51 1.65,904.75"/>
    </edge>
    <edge id=":0/6_3" function="internal">
        <lane id=":0/6_3_0" index="0" speed="13.90" length="5.00" shape="4.75,901.65 3.39,901.84 2.43,902.42 1.84,903.39 1.65,904.75"/>
    </edge>
    <edge id=":0/6_4" function="internal">
        <lane id=":0/6_4_0" index="0" speed="13.90" length="10.32" shape="4.75,901.65 1.95,901.25 -0.05,900.05 -1.25,898.05 -1.65,895.25"/>
    </edge>
    <edge id=":0/6_5" function="internal">
        <lane id=":0/6_5_0" index="0" speed="13.90" length="4.82" shape="4.75,901.65 3.51,900.82 3.10,900.00 3.51,899.17 4.75,898.35"/>
    </edge>
    <edge id=":0/6_6" function="internal">
        <lane id=":0/6_6_0" index="0" speed="13.90" length="5.00" shape="1.65,895.25 1.84,896.61 2.42,897.57 3.39,898.16 4.75,898.35"/>
    </edge>
    <edge id=":0/6_7" function="internal">
        <lane id=":0/6_7_0" index="0" speed="13.90" length="9.50" shape="1.65,895.25 1.65,904.75"/>
    </edge>
    <edge id=":0/6_8" function="internal">
        <lane id=":0/6_8_0" index="0" speed="13.90" length="2.41" shape="1.65,895.25 0.83,896.49 0.00,896.90"/>
    </edge>
    <edge id=":0/6_11" function="internal">
        <lane id=":0/6_11_0" index="0" speed="13.90" length="2.41" shape="0.00,896.90 -0.83,896.49 -1.65,895.25"/>
    </edge>
    <edge id=":0/7_0" function="internal">
        <lane id=":0/7_0_0" index="0" speed="13.90" length="9.50" shape="-1.65,1054.75 -1.65,1045.25"/>
    </edge>
    <edge id=":0/7_1" function="internal">
        <lane id=":0/7_1_0" index="0" speed="13.90" length="5.28" shape="-1.65,1054.75 -1.25,1051.95 -0.05,1049.95 0.05,1049.89"/>
    </edge>
    <edge id=":0/7_2" function="internal">
        <lane id=":0/7_2_0" index="0" speed="13.90" length="2.41" shape="-1.65,1054.75 -0.83,1053.51 0.00,1053.10"/>
    </edge>
    <edge id=":0/7_9" function="internal">
        <lane id=":0/7_9_0" index="0" speed="13.90" length="5.04" shape="0.05,1049.89 1.95,1048.75 4.75,1048.35"/>
    </edge>
    <edge id=":0/7_10" function="internal">
        <lane id=":0/7_10_0" index="0" speed="13.90" length="2.41" shape="0.00,1053.10 0.83,1053.51 1.65,1054.75"/>
    </edge>
    <edge id=":0/7_3" function="internal">
        <lane id=":0/7_3_0" index="0" speed="13.90" length="5.00" shape="4.75,1051.65 3.39,1051.84 2.43,1052.43 1.84,1053.39 1.65,1054.75"/>
    </edge>
    <edge id=":0/7_4" function="internal">
        <lane id=":0/7_4_0" index="0" speed="13.90" length="10.32" shape="4.75,1051.65 1.95,1051.25 -0.05,1050.05 -1.25,1048.05 -1.65,1045.25"/>
    </edge>
    <edge id=":0/7_5" function="internal">
        <lane id=":0/7_5_0" index="0" speed="13.90" length="4.82" shape="4.75,1051.65 3.51,1050.83 3.10,1050.00 3.51,1049.17 4.75,1048.35"/>
    </edge>
    <edge id=":0/7_6" function="internal">
        <lane id=":0/7_6_0" index="0" speed="13.90" length="5.00" shape="1.65,1045.25 1.84,1046.61 2.42,1047.57 3.39,1048.16 4.75,1048.35"/>
    </edge>
    <edge id=":0/7_7" function="internal">
        <lane id=":0/7_7_0" index="0" speed="13.90" length="9.50" shape="1.65,1045.25 1.65,1054.75"/>
    </edge>
    <edge id=":0/7_8" function="internal">
        <lane id=":0/7_8_0" index="0" speed="13.90" length="2.41" shape="1.65,1045.25 0.83,1046.49 0.00,1046.90"/>
    </edge>
    <edge id=":0/7_11" function="internal">
        <lane id=":0/7_11_0" index="0" speed="13.90" length="2.41" shape="0.00,1046.90 -0.83,1046.49 -1.65,1045.25"/>
    </edge>
    <edge id=":0/8_0" function="internal">
        <lane id=":0/8_0_0" index="0" speed="13.90" length="9.50" shape="-1.65,1204.75 -1.65,1195.25"/>
    </edge>
    <edge id=":0/8_1" function="internal">
        <lane id=":0/8_1_0" index="0" speed="13.90" length="5.28" shape="-1.65,1204.75 -1.25,1201.95 -0.05,1199.95 0.05,1199.89"/>
    </edge>
    <edge id=":0/8_2" function="internal">
        <lane id=":0/8_2_0" index="0" speed="13.90" length="2.41" shape="-1.65,1204.75 -0.83,1203.51 0.00,1203.10"/>
    </edge>
    <edge id=":0/8_9" function="internal">
        <lane id=":0/8_9_0" index="0" speed="13.90" length="5.04" shape="0.05,1199.89 1.95,1198.75 4.75,1198.35"/>
    </edge>
    <edge id=":0/8_10" function="internal">
        <lane id=":0/8_10_0" index="0" speed="13.90" length="2.41" shape="0.00,1203.10 0.83,1203.51 1.65,1204.75"/>
    </edge>
    <edge id=":0/8_3" function="internal">
        <lane id=":0/8_3_0" index="0" speed="13.90" length="5.00" shape="4.75,1201.65 3.39,1201.84 2.43,1202.43 1.84,1203.39 1.65,1204.75"/>
    </edge>
    <edge id=":0/8_4" function="internal">
        <lane id=":0/8_4_0" index="0" speed="13.90" length="10.32" shape="4.75,1201.65 1.95,1201.25 -0.05,1200.05 -1.25,1198.05 -1.65,1195.25"/>
    </edge>
    <edge id=":0/8_5" function="internal">
        <lane id=":0/8_5_0" index="0" speed="13.90" length="4.82" shape="4.75,1201.65 3.51,1200.82 3.10,1200.00 3.51,1199.17 4.75,1198.35"/>
    </edge>
    <edge id=":0/8_6" function="internal">
        <lane id=":0/8_6_0" index="0" speed="13.90" length="5.00" shape="1.65,1195.25 1.84,1196.61 2.42,1197.57 3.39,1198.16 4.75,1198.35"/>
    </edge>
    <edge id=":0/8_7" function="internal">
        <lane id=":0/8_7_0" index="0" speed="13.90" length="9.50" shape="1.65,1195.25 1.65,1204.75"/>
    </edge>
    <edge id=":0/8_8" function="internal">
        <lane id=":0/8_8_0" index="0" speed="13.90" length="2.41" shape="1.65,1195.25 0.83,1196.49 0.00,1196.90"/>
    </edge>
    <edge id=":0/8_11" function="internal">
        <lane id=":0/8_11_0" index="0" speed="13.90" length="2.41" shape="0.00,1196.90 -0.83,1196.49 -1.65,1195.25"/>
    </edge>
    <edge id=":0/9_0" function="internal">
        <lane id=":0/9_0_0" index="0" speed="13.90" length="9.50" shape="-1.65,1354.75 -1.65,1345.25"/>
    </edge>
    <edge id=":0/9_1" function="internal">
        <lane id=":0/9_1_0" index="0" speed="13.90" length="5.28" shape="-1.65,1354.75 -1.25,1351.95 -0.05,1349.95 0.05,1349.89"/>
    </edge>
    <edge id=":0/9_2" function="internal">
        <lane id=":0/9_2_0" index="0" speed="13.90" length="2.41" shape="-1.65,1354.75 -0.83,1353.51 0.00,1353.10"/>
    </edge>
    <edge id=":0/9_9" function="internal">
        <lane id=":0/9_9_0" index="0" speed="13.90" length="5.04" shape="0.05,1349.89 1.95,1348.75 4.75,1348.35"/>
    </edge>
    <edge id=":0/9_10" function="internal">
        <lane id=":0/9_10_0" index="0" speed="13.90" length="2.41" shape="0.00,1353.10 0.83,1353.51 1.65,1354.75"/>
    </edge>
    <edge id=":0/9_3" function="internal">
        <lane id=":0/9_3_0" index="0" speed="13.90" length="5.00" shape="4.75,1351.65 3.39,1351.84 2.43,1352.43 1.84,1353.39 1.65,1354.75"/>
    </edge>
    <edge id=":0/9_4" function="internal">
        <lane id=":0/9_4_0" index="0" speed="13.90" length="10.32" shape="4.75,1351.65 1.95,1351.25 -0.05,1350.05 -1.25,1348.05 -1.65,1345.25"/>
    </edge>
    <edge id=":0/9_5" function="internal">
        <lane id=":0/9_5_0" index="0" speed="13.90" length="4.82" shape="4.75,1351.65 3.51,1350.82 3.10,1350.00 3.51,1349.17 4.75,1348.35"/>
    </edge>
    <edge id=":0/9_6" function="internal">
        <lane id=":0/9_6_0" index="0" speed="13.90" length="5.00" shape="1.65,1345.25 1.84,1346.61 2.42,1347.57 3.39,1348.16 4.75,1348.35"/>
    </edge>
    <edge id=":0/9_7" function="internal">
        <lane id=":0/9_7_0" index="0" speed="13.90" length="9.50" shape="1.65,1345.25 1.65,1354.75"/>
    </edge>
    <edge id=":0/9_8" function="internal">
        <lane id=":0/9_8_0" index="0" speed="13.90" length="2.41" shape="1.65,1345.25 0.83,1346.49 0.00,1346.90"/>
    </edge>
    <edge id=":0/9_11" function="internal">
        <lane id=":0/9_11_0" index="0" speed="13.90" length="2.41" shape="0.00,1346.90 -0.83,1346.49 -1.65,1345.25"/>
    </edge>
    <edge id=":1/0_0" function="internal">
        <lane id=":1/0_0_0" index="0" speed="13.90" length="5.00" shape="148.35,4.75 148.16,3.39 147.57,2.43 146.61,1.84 145.25,1.65"/>
    </edge>
    <edge id=":1/0_1" function="internal">
        <lane id=":1/0_1_0" index="0" speed="13.90" length="10.32" shape="148.35,4.75 148.75,1.95 149.95,-0.05 151.95,-1.25 154.75,-1.65"/>
    </edge>
    <edge id=":1/0_2" function="internal">
        <lane id=":1/0_2_0" index="0" speed="13.90" length="4.82" shape="148.35,4.75 149.17,3.51 150.00,3.10 150.82,3.51 151.65,4.75"/>
    </edge>
    <edge id=":1/0_3" function="internal">
        <lane id=":1/0_3_0" index="0" speed="13.90" length="5.00" shape="154.75,1.65 153.39,1.84 152.43,2.42 151.84,3.39 151.65,4.75"/>
    </edge>
    <edge id=":1/0_4" function="internal">
        <lane id=":1/0_4_0" index="0" speed="13.90" length="9.50" shape="154.75,1.65 145.25,1.65"/>
    </edge>
    <edge id=":1/0_5" function="internal">
        <lane id=":1/0_5_0" index="0" speed="13.90" length="2.41" shape="154.75,1.65 153.51,0.83 153.10,0.00"/>
    </edge>
    <edge id=":1/0_9" function="internal">
        <lane id=":1/0_9_0" index="0" speed="13.90" length="2.41" shape="153.10,0.00 153.51,-0.83 154.75,-1.65"/>
    </edge>
    <edge id=":1/0_6" function="internal">
        <lane id=":1/0_6_0" index="0" speed="13.90" length="9.50" shape="145.25,-1.65 154.75,-1.65"/>
    </edge>
    <edge id=":1/0_7" function="internal">
        <lane id=":1/0_7_0" index="0" speed="13.90" length="5.28" shape="145.25,-1.65 148.05,-1.25 150.05,-0.05 150.11,0.05"/>
    </edge>
    <edge id=":1/0_8" function="internal">
        <lane id=":1/0_8_0" index="0" speed="13.90" length="2.41" shape="145.25,-1.65 146.49,-0.83 146.90,0.00"/>
    </edge>
    <edge id=":1/0_10" function="internal">
        <lane id=":1/0_10_0" index="0" speed="13.90" length="5.04" shape="150.11,0.05 151.25,1.95 151.65,4.75"/>
    </edge>
    <edge id=":1/0_11" function="internal">
        <lane id=":1/0_11_0" index="0" speed="13.90" length="2.41" shape="146.90,0.00 146.49,0.83 145.25,1.65"/>
    </edge>
    <edge id=":1/1_0" function="internal">
        <lane id=":1/1_0_0" index="0" speed="13.90" length="5.00" shape="148.35,154.75 148.16,153.39 147.57,152.43 146.61,151.84 145.25,151.65"/>
    </edge>
    <edge id=":1/1_1" function="internal">
        <lane id=":1/1_1_0" index="0" speed="13.90" length="9.50" shape="148.35,154.75 148.35,145.25"/>
    </edge>
    <edge id=":1/1_2" function="internal">
        <lane id=":1/1_2_0" index="0" speed="13.90" length="5.28" shape="148.35,154.75 148.75,151.95 149.95,149.95 150.05,149.89"/>
    </edge>
    <edge id=":1/1_3" function="internal">
        <lane id=":1/1_3_0" index="0" speed="13.90" length="2.41" shape="148.35,154.75 149.17,153.51 150.00,153.10"/>
    </edge>
    <edge id=":1/1_16" function="internal">
        <lane id=":1/1_16_0" index="0" speed="13.90" length="5.04" shape="150.05,149.89 151.95,148.75 154.75,148.35"/>
    </edge>
    <edge id=":1/1_17" function="internal">
        <lane id=":1/1_17_0" index="0" speed="13.90" length="2.41" shape="150.00,153.10 150.82,153.51 151.65,154.75"/>
    </edge>
    <edge id=":1/1_4" function="internal">
        <lane id=":1/1_4_0" index="0" speed="13.90" length="5.00" shape="154.75,151.65 153.39,151.84 152.43,152.43 151.84,153.39 151.65,154.75"/>
    </edge>
    <edge id=":1/1_5" function="internal">
        <lane id=":1/1_5_0" index="0" speed="13.90" length="9.50" shape="154.75,151.65 145.25,151.65"/>
    </edge>
    <edge id=":1/1_6" function="internal">
        <lane id=":1/1_6_0" index="0" speed="13.90" length="10.32" shape="154.75,151.65 151.95,151.25 149.95,150.05 148.75,148.05 148.35,145.25"/>
    </edge>
    <edge id=":1/1_7" function="internal">
        <lane id=":1/1_7_0" index="0" speed="13.90" length="4.82" shape="154.75,151.65 153.51,150.83 153.10,150.00 153.51,149.18 154.75,148.35"/>
    </edge>
    <edge id=":1/1_8" function="internal">
        <lane id=":1/1_8_0" index="0" speed="13.90" length="5.00" shape="151.65,145.25 151.84,146.61 152.43,147.57 153.39,148.16 154.75,148.35"/>
    </edge>
    <edge id=":1/1_9" function="internal">
        <lane id=":1/1_9_0" index="0" speed="13.90" length="9.50" shape="151.65,145.25 151.65,154.75"/>
    </edge>
    <edge id=":1/1_10" function="internal">
        <lane id=":1/1_10_0" index="0" speed="13.90" length="5.28" shape="151.65,145.25 151.25,148.05 150.05,150.05 149.95,150.11"/>
    </edge>
    <edge id=":1/1_11" function="internal">
        <lane id=":1/1_11_0" index="0" speed="13.90" length="2.41" shape="151.65,145.25 150.83,146.49 150.00,146.90"/>
    </edge>
    <edge id=":1/1_18" function="internal">
        <lane id=":1/1_18_0" index="0" speed="13.90" length="5.04" shape="149.95,150.11 148.05,151.25 145.25,151.65"/>
    </edge>
    <edge id=":1/1_19" function="internal">
        <lane id=":1/1_19_0" index="0" speed="13.90" length="2.41" shape="150.00,146.90 149.18,146.49 148.35,145.25"/>
    </edge>
    <edge id=":1/1_12" function="internal">
        <lane id=":1/1_12_0" index="0" speed="13.90" length="5.00" shape="145.25,148.35 146.61,148.16 147.57,147.57 148.16,146.61 148.35,145.25"/>
    </edge>
    <edge id=":1/1_13" function="internal">
        <lane id=":1/1_13_0" index="0" speed="13.90" length="9.50" shape="145.25,148.35 154.75,148.35"/>
    </edge>
    <edge id=":1/1_14" function="internal">
        <lane id=":1/1_14_0" index="0" speed="13.90" length="10.32" shape="145.25,148.35 148.05,148.75 150.05,149.95 151.25,151.95 151.65,154.75"/>
    </edge>
    <edge id=":1/1_15" function="internal">
        <lane id=":1/1_15_0" index="0" speed="13.90" length="4.82" shape="145.25,148.35 146.49,149.17 146.90,150.00 146.49,150.82 145.25,151.65"/>
    </edge>
    <edge id=":1/10_0" function="internal">
        <lane id=":1/10_0_0" index="0" speed="13.90" length="9.50" shape="154.75,1501.65 145.25,1501.65"/>
    </edge>
    <edge id=":1/10_1" function="internal">
        <lane id=":1/10_1_0" index="0" speed="13.90" length="5.28" shape="154.75,1501.65 151.95,1501.25 149.95,1500.05 149.89,1499.95"/>
    </edge>
    <edge id=":1/10_2" function="internal">
        <lane id=":1/10_2_0" index="0" speed="13.90" length="2.41" shape="154.75,1501.65 153.51,1500.82 153.10,1500.00"/>
    </edge>
    <edge id=":1/10_9" function="internal">
        <lane id=":1/10_9_0" index="0" speed="13.90" length="5.04" shape="149.89,1499.95 148.75,1498.05 148.35,1495.25"/>
    </edge>
    <edge id=":1/10_10" function="internal">
        <lane id=":1/10_10_0" index="0" speed="13.90" length="2.41" shape="153.10,1500.00 153.51,1499.17 154.75,1498.35"/>
    </edge>
    <edge id=":1/10_3" function="internal">
        <lane id=":1/10_3_0" index="0" speed="13.90" length="5.00" shape="151.65,1495.25 151.84,1496.61 152.43,1497.57 153.39,1498.16 154.75,1498.35"/>
    </edge>
    <edge id=":1/10_4" function="internal">
        <lane id=":1/10_4_0" index="0" speed="13.90" length="10.32" shape="151.65,1495.25 151.25,1498.05 150.05,1500.05 148.05,1501.25 145.25,1501.65"/>
    </edge>
    <edge id=":1/10_5" function="internal">
        <lane id=":1/10_5_0" index="0" speed="13.90" length="4.82" shape="151.65,1495.25 150.83,1496.49 150.00,1496.90 149.18,1496.49 148.35,1495.25"/>
    </edge>
    <edge id=":1/10_6" function="internal">
        <lane id=":1/10_6_0" index="0" speed="13.90" length="5.00" shape="145.25,1498.35 146.61,1498.16 147.57,1497.57 148.16,1496.61 148.35,1495.25"/>
    </edge>
    <edge id=":1/10_7" function="internal">
        <lane id=":1/10_7_0" index="0" speed="13.90" length="9.50" shape="145.25,1498.35 154.75,1498.35"/>
    </edge>
    <edge id=":1/10_8" function="internal">
        <lane id=":1/10_8_0" index="0" speed="13.90" length="2.41" shape="145.25,1498.35 146.49,1499.18 146.90,1500.00"/>
    </edge>