<?xml version="1.0" encoding="UTF-8"?>

<!-- generated on Fri Aug 18 13:20:26 2017 by SUMO duarouter Version 0.30.0
<?xml version="1.0" encoding="UTF-8"?>

<configuration xmlns:xsi="http://www.w3.org/2001/XMLSchema-instance" xsi:noNamespaceSchemaLocation="http://sumo.dlr.de/xsd/duarouterConfiguration.xsd">

    <input>
        <net-file value="grid.net.xml"/>
        <trip-files value="grid.trips.xml"/>
    </input>

    <output>
        <output-file value="grid.rou.xml"/>
    </output>

    <processing>
        <ignore-errors value="true"/>
    </processing>

    <time>
        <begin value="0"/>
        <end value="150.0"/>
    </time>

    <report>
        <no-warnings value="true"/>
        <no-step-log value="true"/>
    </report>

</configuration>
-->

<routes xmlns:xsi="http://www.w3.org/2001/XMLSchema-instance" xsi:noNamespaceSchemaLocation="http://sumo.dlr.de/xsd/routes_file.xsd">
    <vehicle id="0" depart="0.00">
        <route edges="8/4to9/4 9/4to8/4 8/4to7/4 7/4to6/4 6/4to5/4 5/4to4/4 4/4to3/4 3/4to2/4 2/4to1/4 1/4to1/5 1/5to1/6 1/6to1/7 1/7to1/8 1/8to1/9 1/9to1/10"/>
    </vehicle>
    <vehicle id="1" depart="0.50">
        <route edges="8/5to7/5 7/5to6/5 6/5to5/5 5/5to4/5 4/5to3/5 3/5to2/5 2/5to1/5 1/5to1/6 1/6to1/7 1/7to1/8 1/8to1/9 1/9to0/9"/>
    </vehicle>
    <vehicle id="2" depart="1.00">
        <route edges="2/3to1/3 1/3to2/3 2/3to3/3 3/3to4/3 4/3to5/3 5/3to6/3 6/3to7/3 7/3to8/3 8/3to9/3 9/3to10/3 10/3to10/4 10/4to10/5 10/5to10/6 10/6to10/7 10/7to10/8 10/8to10/7"/>
    </vehicle>
    <vehicle id="3" depart="1.50">
        <route edges="5/4to5/3 5/3to5/4 5/4to5/5 5/5to5/6 5/6to5/7 5/7to5/8 5/8to6/8 6/8to7/8 7/8to7/7"/>
    </vehicle>
    <vehicle id="4" depart="2.00">
        <route edges="5/3to5/2 5/2to4/2 4/2to3/2 3/2to3/3 3/3to3/4 3/4to3/5 3/5to3/6 3/6to3/7"/>
    </vehicle>
    <vehicle id="5" depart="2.50">
        <route edges="3/2to3/3 3/3to3/2 3/2to4/2 4/2to5/2"/>
    </vehicle>
    <vehicle id="6" depart="3.00">
        <route edges="4/5to4/6 4/6to3/6 3/6to3/5 3/5to3/4 3/4to4/4"/>
    </vehicle>
    <vehicle id="7" depart="3.50">
        <route edges="2/7to3/7 3/7to3/6 3/6to4/6 4/6to5/6 5/6to6/6 6/6to7/6 7/6to8/6 8/6to9/6 9/6to9/5"/>
    </vehicle>
    <vehicle id="8" depart="4.00">
        <route edges="8/3to8/2 8/2to7/2 7/2to6/2 6/2to5/2 5/2to4/2 4/2to3/2 3/2to2/2 2/2to1/2 1/2to1/1 1/1to1/2"/>
    </vehicle>
    <vehicle id="9" depart="4.50">
        <route edges="2/4to2/3 2/3to2/2 2/2to3/2 3/2to4/2 4/2to5/2 5/2to5/1"/>
    </vehicle>
    <vehicle id="10" depart="5.00">
        <route edges="1/4to1/5 1/5to0/5 0/5to0/4 0/4to0/3 0/3to1/3"/>
    </vehicle>
    <vehicle id="11" depart="5.50">
        <route edges="0/1to1/1 1/1to1/2 1/2to1/3 1/3to1/4 1/4to1/5 1/5to1/6 1/6to1/7 1/7to2/7 2/7to3/7 3/7to4/7 4/7to5/7 5/7to6/7 6/7to7/7 7/7to8/7 8/7to9/7 9/7to9/8"/>
    </vehicle>
    <vehicle id="12" depart="6.00">
        <route edges="0/4to1/4 1/4to1/5 1/5to1/6 1/6to1/7 1/7to1/8 1/8to1/9 1/9to2/9 2/9to3/9 3/9to2/9"/>
    </vehicle>
    <vehicle id="13" depart="6.50">
        <route edges="2/1to3/1 3/1to2/1 2/1to1/1 1/1to1/2 1/2to1/3 1/3to1/4"/>
    </vehicle>
    <vehicle id="14" depart="7.00">
        <route edges="2/5to2/6 2/6to2/5 2/5to3/5 3/5to3/6"/>
    </vehicle>
    <vehicle id="15" depart="7.50">
        <route edges="8/5to8/4 8/4to7/4 7/4to6/4 6/4to5/4 5/4to4/4 4/4to3/4 3/4to2/4 2/4to1/4 1/4to2/4"/>
    </vehicle>
    <vehicle id="16" depart="8.00">
        <route edges="9/6to10/6 10/6to10/5 10/5to10/4 10/4to10/3 10/3to10/2 10/2to9/2 9/2to10/2"/>
    </vehicle>
    <vehicle id="17" depart="8.50">
        <route edges="4/8to3/8 3/8to3/7 3/7to3/6 3/6to3/5 3/5to3/4 3/4to3/3 3/3to3/2 3/2to4/2 4/2to5/2 5/2to5/3"/>
    </vehicle>
    <vehicle id="18" depart="9.00">
        <route edges="10/3to9/3 9/3to9/2 9/2to9/3"/>
    </vehicle>
    <vehicle id="19" depart="9.50">
        <route edges="8/4to8/3 8/3to7/3 7/3to6/3 6/3to5/3 5/3to4/3 4/3to3/3 3/3to2/3 2/3to2/4 2/4to2/5 2/5to2/6 2/6to2/7 2/7to2/8 2/8to2/9 2/9to2/8"/>
    </vehicle>
    <vehicle id="20" depart="10.00">
        <route edges="1/1to1/0 1/0to1/1 1/1to0/1 0/1to0/2 0/2to0/3"/>
    </vehicle>
    <vehicle id="21" depart="10.50">
        <route edges="4/0to4/1 4/1to4/0 4/0to5/0 5/0to6/0 6/0to7/0 7/0to7/1"/>
    </vehicle>
    <vehicle id="22" depart="11.00">
        <route edges="2/1to1/1 1/1to2/1 2/1to3/1 3/1to4/1 4/1to3/1"/>
    </vehicle>
    <vehicle id="23" depart="11.50">
        <route edges="2/1to3/1 3/1to2/1 2/1to1/1 1/1to1/0 1/0to2/0"/>
    </vehicle>
    <vehicle id="24" depart="12.00">
        <route edges="10/10to9/10 9/10to8/10 8/10to7/10 7/10to6/10 6/10to6/9 6/9to6/8 6/8to6/7 6/7to6/6 6/6to6/5 6/5to6/4 6/4to6/3 6/3to7/3"/>
    </vehicle>
    <vehicle id="25" depart="12.50">
        <route edges="3/2to3/3 3/3to3/4 3/4to3/5 3/5to3/6 3/6to3/7 3/7to3/8 3/8to4/8 4/8to5/8 5/8to6/8 6/8to6/9"/>
    </vehicle>
    <vehicle id="26" depart="13.00">
        <route edges="1/9to0/9 0/9to0/8 0/8to0/7 0/7to0/6 0/6to0/5 0/5to0/4 0/4to0/3 0/3to0/2 0/2to1/2 1/2to2/2 2/2to3/2 3/2to3/1"/>
    </vehicle>
    <vehicle id="27" depart="13.50">
        <route edges="7/2to7/3 7/3to6/3 6/3to6/4 6/4to5/4"/>
    </vehicle>
    <vehicle id="28" depart="14.00">
        <route edges="9/8to9/7 9/7to8/7 8/7to7/7 7/7to7/6 7/6to7/5 7/5to7/4 7/4to8/4"/>
    </vehicle>
    <vehicle id="29" depart="14.50">
        <route edges="1/0to0/0 0/0to0/1 0/1to0/2 0/2to0/3 0/3to0/4 0/4to0/5 0/5to0/6 0/6to0/7 0/7to0/8 0/8to0/9 0/9to1/9 1/9to1/10 1/10to0/10"/>
    </vehicle>
    <vehicle id="30" depart="15.00">
        <route edges="8/5to9/5 9/5to8/5 8/5to7/5 7/5to6/5 6/5to5/5 5/5to4/5 4/5to3/5 3/5to3/4 3/4to3/3 3/3to3/2 3/2to3/1 3/1to3/0 3/0to4/0"/>
    </vehicle>
    <vehicle id="31" depart="15.50">
        <route edges="5/3to5/4 5/4to5/5 5/5to5/6 5/6to5/7 5/7to5/8 5/8to6/8 6/8to7/8 7/8to8/8 8/8to9/8 9/8to8/8"/>
    </vehicle>
    <vehicle id="32" depart="16.00">
        <route edges="4/5to4/4 4/4to3/4 3/4to3/5 3/5to3/4"/>
    </vehicle>
    <vehicle id="33" depart="16.50">
        <route edges="5/9to5/8 5/8to6/8 6/8to7/8 7/8to8/8 8/8to9/8 9/8to10/8 10/8to10/9 10/9to9/9"/>
    </vehicle>
    <vehicle id="34" depart="17.00">
        <route edges="5/7to5/6 5/6to5/5 5/5to6/5 6/5to7/5 7/5to6/5"/>
    </vehicle>
    <vehicle id="35" depart="17.50">
        <route edges="5/6to5/5 5/5to4/5 4/5to3/5 3/5to2/5 2/5to2/6 2/6to2/7 2/7to2/8 2/8to2/9 2/9to2/10 2/10to3/10"/>
    </vehicle>
    <vehicle id="36" depart="18.00">
        <route edges="3/6to4/6 4/6to4/5 4/5to4/4 4/4to4/3 4/3to4/2 4/2to4/1 4/1to5/1 5/1to5/2"/>
    </vehicle>
    <vehicle id="37" depart="18.50">
        <route edges="9/8to9/9 9/9to10/9 10/9to10/8 10/8to9/8"/>
    </vehicle>
    <vehicle id="38" depart="19.00">
        <route edges="2/9to2/8 2/8to2/7 2/7to2/6 2/6to3/6 3/6to4/6 4/6to3/6"/>
    </vehicle>
    <vehicle id="39" depart="19.50">
        <route edges="5/0to4/0 4/0to3/0 3/0to3/1 3/1to3/2 3/2to3/3 3/3to3/4 3/4to3/5 3/5to3/6 3/6to3/7 3/7to3/8 3/8to3/9 3/9to3/10 3/10to4/10"/>
    </vehicle>
    <vehicle id="40" depart="20.00">
        <route edges="10/6to9/6 9/6to8/6 8/6to7/6 7/6to6/6 6/6to5/6 5/6to4/6 4/6to3/6 3/6to3/7 3/7to3/8"/>
    </vehicle>
    <vehicle id="41" depart="20.50">
        <route edges="8/7to9/7 9/7to8/7 8/7to7/7 7/7to6/7 6/7to5/7 5/7to4/7 4/7to3/7 3/7to2/7 2/7to1/7 1/7to1/6 1/6to1/5 1/5to1/4 1/4to1/3 1/3to1/4"/>
    </vehicle>
    <vehicle id="42" depart="21.00">
        <route edges="4/4to3/4 3/4to4/4 4/4to5/4 5/4to6/4 6/4to5/4"/>
    </vehicle>
    <vehicle id="43" depart="21.50">
        <route edges="3/1to3/2 3/2to3/3 3/3to3/4 3/4to3/5 3/5to3/6 3/6to4/6 4/6to5/6 5/6to4/6"/>
    </vehicle>
    <vehicle id="44" depart="22.00">
        <route edges="8/10to9/10 9/10to9/9 9/9to10/9 10/9to10/8 10/8to10/7 10/7to10/6 10/6to10/5 10/5to10/4 10/4to10/3 10/3to9/3"/>
    </vehicle>
    <vehicle id="45" depart="22.50">
        <route edges="5/8to4/8 4/8to3/8 3/8to3/7 3/7to3/6 3/6to3/5 3/5to3/4 3/4to3/3 3/3to3/2 3/2to2/2"/>
    </vehicle>
    <vehicle id="46" depart="23.00">
        <route edges="9/5to9/4 9/4to8/4 8/4to7/4 7/4to6/4 6/4to5/4 5/4to4/4 4/4to4/3"/>
    </vehicle>
    <vehicle id="47" depart="23.50">
        <route edges="9/8to9/7 9/7to8/7"/>
    </vehicle>
    <vehicle id="48" depart="24.00">
        <route edges="6/5to5/5 5/5to4/5 4/5to3/5 3/5to3/6 3/6to3/7 3/7to3/8 3/8to3/9 3/9to3/10 3/10to4/10"/>
    </vehicle>
    <vehicle id="49" depart="24.50">
        <route edges="0/8to0/9 0/9to0/8 0/8to0/7 0/7to0/6 0/6to0/5 0/5to0/4 0/4to0/3 0/3to0/2 0/2to0/1 0/1to1/1 1/1to2/1 2/1to3/1 3/1to4/1 4/1to5/1 5/1to5/2"/>
    </vehicle>
    <vehicle id="50" depart="25.00">
        <route edges="5/1to4/1 4/1to5/1 5/1to6/1 6/1to7/1 7/1to8/1 8/1to9/1 9/1to10/1 10/1to10/2 10/2to10/3 10/3to10/4 10/4to10/5 10/5to10/6 10/6to10/7 10/7to10/8"/>
    </vehicle>
    <vehicle id="51" depart="25.50">
        <route edges="4/2to4/1 4/1to4/2 4/2to5/2 5/2to6/2 6/2to7/2 7/2to8/2"/>
    </vehicle>
    <vehicle id="52" depart="26.00">
        <route edges="2/10to2/9 2/9to2/8 2/8to2/7 2/7to2/6 2/6to2/5 2/5to3/5 3/5to4/5 4/5to5/5 5/5to4/5"/>
    </vehicle>
    <vehicle id="53" depart="26.50">
        <route edges="6/2to6/3 6/3to6/4 6/4to6/5 6/5to6/6 6/6to6/7 6/7to6/8 6/8to6/9 6/9to7/9 7/9to7/10"/>
    </vehicle>
    <vehicle id="54" depart="27.00">
        <route edges="5/6to5/7 5/7to6/7"/>
    </vehicle>
    <vehicle id="55" depart="27.50">
        <route edges="7/7to7/6 7/6to6/6 6/6to5/6 5/6to4/6 4/6to3/6 3/6to2/6 2/6to1/6 1/6to0/6 0/6to0/7 0/7to0/8 0/8to0/9 0/9to0/8"/>
    </vehicle>
    <vehicle id="56" depart="28.00">
        <route edges="9/9to9/8 9/8to8/8 8/8to7/8 7/8to7/7 7/7to7/6 7/6to7/5 7/5to8/5"/>
    </vehicle>
    <vehicle id="57" depart="28.50">
        <route edges="5/6to4/6 4/6to5/6 5/6to6/6 6/6to7/6 7/6to8/6 8/6to9/6 9/6to10/6 10/6to10/5 10/5to10/4 10/4to10/3 10/3to10/2 10/2to10/1 10/1to9/1"/>
    </vehicle>
    <vehicle id="58" depart="29.00">
        <route edges="7/7to7/8 7/8to6/8 6/8to5/8 5/8to4/8 4/8to3/8 3/8to2/8 2/8to1/8 1/8to1/7 1/7to1/8"/>
    </vehicle>
    <vehicle id="59" depart="29.50">
        <route edges="4/8to4/7 4/7to3/7 3/7to3/8 3/8to3/9 3/9to3/8"/>
    </vehicle>
    <vehicle id="60" depart="30.00">
        <route edges="1/10to1/9 1/9to1/8 1/8to1/7 1/7to1/6 1/6to1/5 1/5to1/4 1/4to1/3 1/3to1/2 1/2to1/1 1/1to1/0 1/0to2/0 2/0to3/0 3/0to4/0 4/0to5/0 5/0to6/0 6/0to7/0 7/0to8/0 8/0to9/0 9/0to8/0"/>
    </vehicle>
    <vehicle id="61" depart="30.50">
        <route edges="4/5to4/4 4/4to5/4 5/4to6/4 6/4to6/3"/>
    </vehicle>
    <vehicle id="62" depart="31.00">
        <route edges="7/4to7/3 7/3to6/3 6/3to5/3 5/3to4/3 4/3to3/3 3/3to2/3 2/3to1/3 1/3to1/4 1/4to1/5 1/5to2/5"/>
    </vehicle>
    <vehicle id="63" depart="31.50">
        <route edges="8/3to8/2 8/2to8/1 8/1to8/0 8/0to9/0 9/0to9/1"/>
    </vehicle>
    <vehicle id="64" depart="32.00">
        <route edges="7/4to7/3 7/3to7/2 7/2to7/1 7/1to7/0 7/0to8/0 8/0to9/0 9/0to10/0"/>
    </vehicle>
    <vehicle id="65" depart="32.50">
        <route edges="8/3to9/3 9/3to8/3 8/3to7/3 7/3to6/3 6/3to5/3 5/3to4/3 4/3to4/2 4/2to4/1 4/1to4/0 4/0to4/1"/>
    </vehicle>
    <vehicle id="66" depart="33.00">
        <route edges="8/10to9/10 9/10to8/10 8/10to7/10 7/10to6/10 6/10to5/10 5/10to5/9 5/9to5/8 5/8to5/7 5/7to5/6 5/6to5/5 5/5to5/4 5/4to5/3 5/3to5/2 5/2to5/1"/>
    </vehicle>
    <vehicle id="67" depart="33.50">
        <route edges="1/10to1/9 1/9to1/8 1/8to1/7 1/7to2/7 2/7to3/7 3/7to4/7 4/7to5/7 5/7to6/7 6/7to7/7 7/7to8/7 8/7to9/7 9/7to9/8"/>
    </vehicle>
    <vehicle id="68" depart="34.00">
        <route edges="10/5to10/6 10/6to9/6 9/6to8/6 8/6to7/6 7/6to6/6 6/6to5/6 5/6to4/6 4/6to3/6 3/6to3/5 3/5to3/4"/>
    </vehicle>
    <vehicle id="69" depart="34.50">
        <route edges="10/0to9/0 9/0to9/1 9/1to9/2 9/2to9/3 9/3to9/4 9/4to9/5 9/5to10/5"/>
    </vehicle>
    <vehicle id="70" depart="35.00">
        <route edges="9/5to9/4 9/4to8/4 8/4to7/4 7/4to6/4 6/4to5/4 5/4to4/4 4/4to3/4 3/4to2/4 2/4to1/4 1/4to1/3 1/3to1/2 1/2to1/1 1/1to1/0 1/0to0/0"/>
    </vehicle>
    <vehicle id="71" depart="35.50">
        <route edges="0/2to0/1 0/1to1/1 1/1to2/1 2/1to3/1 3/1to4/1 4/1to5/1 5/1to6/1 6/1to7/1 7/1to8/1 8/1to9/1 9/1to10/1 10/1to10/2 10/2to10/3 10/3to10/4 10/4to10/3"/>
    </vehicle>
    <vehicle id="72" depart="36.00">
        <route edges="5/0to4/0 4/0to3/0 3/0to2/0 2/0to1/0 1/0to1/1 1/1to0/1 0/1to0/2 0/2to0/3 0/3to0/4 0/4to0/5 0/5to0/6 0/6to0/7 0/7to0/8 0/8to0/9 0/9to1/9"/>
    </vehicle>
    <vehicle id="73" depart="36.50">
        <route edges="2/10to3/10 3/10to3/9 3/9to3/8 3/8to3/7 3/7to3/6 3/6to3/5 3/5to3/4 3/4to3/3 3/3to4/3 4/3to5/3 5/3to6/3"/>
    </vehicle>
    <vehicle id="74" depart="37.00">
        <route edges="3/1to4/1 4/1to4/2 4/2to4/1"/>
    </vehicle>
    <vehicle id="75" depart="37.50">
        <route edges="5/6to5/5 5/5to6/5 6/5to7/5 7/5to8/5 8/5to9/5 9/5to10/5 10/5to10/4 10/4to10/5"/>
    </vehicle>
    <vehicle id="76" depart="38.00">
        <route edges="2/1to2/0 2/0to2/1 2/1to2/2 2/2to2/3 2/3to2/4 2/4to2/5 2/5to2/6 2/6to2/7 2/7to2/8 2/8to2/9 2/9to3/9 3/9to4/9 4/9to5/9 5/9to6/9 6/9to7/9 7/9to8/9 8/9to7/9"/>
    </vehicle>
    <vehicle id="77" depart="38.50">
        <route edges="9/6to8/6 8/6to7/6 7/6to6/6 6/6to5/6 5/6to4/6 4/6to3/6 3/6to2/6 2/6to2/7"/>
    </vehicle>
    <vehicle id="78" depart="39.00">
        <route edges="6/3to7/3 7/3to7/2 7/2to8/2 8/2to8/3"/>
    </vehicle>
    <vehicle id="79" depart="39.50">
        <route edges="10/8to10/9 10/9to9/9 9/9to8/9 8/9to7/9 7/9to6/9 6/9to5/9 5/9to4/9 4/9to3/9 3/9to2/9 2/9to1/9 1/9to1/8 1/8to1/7 1/7to0/7"/>
    </vehicle>
    <vehicle id="80" depart="40.00">
        <route edges="3/9to3/10 3/10to3/9 3/9to3/8 3/8to3/7 3/7to3/6 3/6to3/5 3/5to3/4 3/4to3/3 3/3to3/2 3/2to4/2 4/2to5/2 5/2to6/2 6/2to7/2 7/2to8/2 8/2to9/2 9/2to9/3"/>
    </vehicle>
    <vehicle id="81" depart="40.50">
        <route edges="1/1to0/1 0/1to0/2 0/2to0/3 0/3to0/4 0/4to1/4 1/4to2/4 2/4to3/4 3/4to4/4 4/4to5/4 5/4to6/4 6/4to7/4 7/4to6/4"/>
    </vehicle>
    <vehicle id="82" depart="41.00">
        <route edges="10/7to10/8 10/8to9/8 9/8to8/8 8/8to7/8 7/8to6/8 6/8to5/8 5/8to4/8 4/8to3/8 3/8to2/8 2/8to1/8"/>
    </vehicle>
    <vehicle id="83" depart="41.50">
        <route edges="0/6to1/6 1/6to1/5 1/5to1/4 1/4to1/3 1/3to1/2 1/2to1/1 1/1to2/1 2/1to1/1"/>
    </vehicle>
    <vehicle id="84" depart="42.00">
        <route edges="10/3to9/3 9/3to8/3 8/3to7/3 7/3to6/3 6/3to5/3 5/3to5/2 5/2to6/2"/>
    </vehicle>
    <vehicle id="85" depart="42.50">
        <route edges="3/2to3/1 3/1to3/2 3/2to3/3 3/3to3/4 3/4to3/5 3/5to3/6 3/6to3/7 3/7to3/8 3/8to3/9 3/9to4/9 4/9to3/9"/>
    </vehicle>
    <vehicle id="86" depart="43.00">
        <route edges="8/1to9/1 9/1to9/2 9/2to9/3 9/3to10/3"/>
    </vehicle>
    <vehicle id="87" depart="43.50">
        <route edges="1/9to1/8 1/8to1/7 1/7to1/6 1/6to1/7"/>
    </vehicle>
    <vehicle id="88" depart="44.00">
        <route edges="9/1to10/1 10/1to9/1 9/1to8/1 8/1to8/2 8/2to8/3 8/3to8/4 8/4to8/5 8/5to8/6 8/6to8/7"/>
    </vehicle>
    <vehicle id="89" depart="44.50">
        <route edges="4/2to4/3 4/3to3/3 3/3to3/2 3/2to3/1 3/1to2/1"/>
    </vehicle>
    <vehicle id="90" depart="45.00">
        <route edges="3/4to3/3 3/3to3/4 3/4to3/5 3/5to4/5 4/5to5/5 5/5to6/5 6/5to7/5 7/5to8/5 8/5to9/5"/>
    </vehicle>
    <vehicle id="91" depart="45.50">
        <route edges="1/4to1/5 1/5to2/5 2/5to3/5 3/5to4/5 4/5to5/5 5/5to6/5 6/5to7/5 7/5to8/5 8/5to9/5"/>
    </vehicle>
    <vehicle id="92" depart="46.00">
        <route edges="0/2to0/1 0/1to0/2 0/2to0/3 0/3to0/4 0/4to0/5 0/5to0/6 0/6to0/7 0/7to1/7 1/7to2/7 2/7to3/7 3/7to4/7 4/7to5/7 5/7to6/7 6/7to7/7 7/7to8/7 8/7to9/7"/>
    </vehicle>
    <vehicle id="93" depart="46.50">
        <route edges="8/0to8/1 8/1to7/1 7/1to6/1 6/1to5/1 5/1to5/2 5/2to5/3 5/3to5/4 5/4to6/4"/>
    </vehicle>
    <vehicle id="94" depart="47.00">
        <route edges="2/0to3/0 3/0to3/1 3/1to4/1 4/1to5/1 5/1to6/1 6/1to7/1 7/1to8/1 8/1to9/1 9/1to10/1 10/1to10/2 10/2to10/3 10/3to10/4 10/4to10/5 10/5to10/6 10/6to10/7 10/7to10/8 10/8to10/9 10/9to10/10 10/10to9/10"/>
    </vehicle>
    <vehicle id="95" depart="47.50">
        <route edges="1/2to1/1 1/1to1/2 1/2to1/3 1/3to1/4 1/4to2/4 2/4to3/4 3/4to4/4 4/4to5/4 5/4to5/3"/>
    </vehicle>
    <vehicle id="96" depart="48.00">
        <route edges="7/1to8/1 8/1to7/1 7/1to6/1 6/1to5/1 5/1to4/1 4/1to3/1 3/1to3/2 3/2to3/3 3/3to3/4 3/4to3/5 3/5to3/6 3/6to3/7 3/7to3/8 3/8to3/9 3/9to4/9"/>
    </vehicle>
    <vehicle id="97" depart="48.50">
        <route edges="5/2to5/1 5/1to5/2 5/2to5/3 5/3to6/3 6/3to6/4"/>
    </vehicle>
    <vehicle id="98" depart="49.00">
        <route edges="9/1to8/1 8/1to7/1 7/1to6/1 6/1to5/1 5/1to4/1 4/1to3/1 3/1to3/2 3/2to3/3 3/3to3/4 3/4to3/5 3/5to3/6 3/6to3/7"/>
    </vehicle>
    <vehicle id="99" depart="49.50">
        <route edges="3/2to2/2 2/2to2/3 2/3to2/4 2/4to2/5 2/5to2/6 2/6to3/6 3/6to4/6 4/6to5/6 5/6to6/6 6/6to7/6 7/6to8/6"/>
    </vehicle>
    <vehicle id="100" depart="50.00">
        <route edges="6/3to6/4 6/4to7/4 7/4to8/4 8/4to9/4 9/4to10/4 10/4to9/4"/>
    </vehicle>
    <vehicle id="101" depart="50.50">
        <route edges="4/9to3/9 3/9to3/8 3/8to3/7 3/7to3/6 3/6to4/6 4/6to5/6 5/6to6/6 6/6to6/7"/>
    </vehicle>
    <vehicle id="102" depart="51.00">
        <route edges="10/0to10/1 10/1to9/1 9/1to8/1 8/1to7/1 7/1to6/1 6/1to5/1 5/1to4/1 4/1to3/1 3/1to2/1 2/1to2/2 2/2to2/3 2/3to2/4 2/4to2/5 2/5to2/6 2/6to2/7 2/7to1/7"/>
    </vehicle>
    <vehicle id="103" depart="51.50">
        <route edges="10/7to10/8 10/8to10/7 10/7to10/6 10/6to10/5 10/5to10/4 10/4to10/3 10/3to10/2 10/2to10/1 10/1to9/1 9/1to10/1"/>
    </vehicle>
    <vehicle id="104" depart="52.00">
        <route edges="9/2to9/1 9/1to8/1 8/1to7/1 7/1to6/1 6/1to5/1 5/1to4/1 4/1to3/1 3/1to2/1 2/1to1/1 1/1to0/1 0/1to0/2 0/2to0/1"/>
    </vehicle>
    <vehicle id="105" depart="52.50">
        <route edges="0/5to1/5 1/5to2/5"/>
    </vehicle>
    <vehicle id="106" depart="53.00">
        <route edges="9/4to10/4 10/4to9/4 9/4to8/4 8/4to7/4 7/4to6/4 6/4to5/4 5/4to4/4 4/4to3/4 3/4to3/5 3/5to3/6 3/6to3/7 3/7to3/8"/>
    </vehicle>
    <vehicle id="107" depart="53.50">
        <route edges="4/10to3/10 3/10to3/9 3/9to3/8 3/8to3/7 3/7to3/6 3/6to3/5 3/5to4/5 4/5to5/5 5/5to6/5 6/5to7/5 7/5to8/5 8/5to8/4"/>
    </vehicle>
    <vehicle id="108" depart="54.00">
        <route edges="6/1to6/2 6/2to6/3 6/3to6/4 6/4to6/5 6/5to6/6 6/6to7/6 7/6to8/6 8/6to8/5"/>
    </vehicle>
    <vehicle id="109" depart="54.50">
        <route edges="2/8to3/8 3/8to3/7 3/7to3/6 3/6to3/5 3/5to3/4 3/4to4/4 4/4to3/4"/>
    </vehicle>
    <vehicle id="110" depart="55.00">
        <route edges="6/7to5/7 5/7to5/6 5/6to5/5 5/5to6/5"/>
    </vehicle>
    <vehicle id="111" depart="55.50">
        <route edges="9/10to9/9 9/9to8/9 8/9to7/9 7/9to6/9 6/9to5/9 5/9to4/9 4/9to3/9 3/9to2/9 2/9to1/9 1/9to0/9 0/9to0/8 0/8to0/7 0/7to0/6 0/6to0/5 0/5to0/4 0/4to0/3 0/3to0/2"/>
    </vehicle>
    <vehicle id="112" depart="56.00">
        <route edges="6/8to7/8 7/8to6/8 6/8to6/7 6/7to6/6 6/6to6/5 6/5to6/4 6/4to6/3 6/3to6/2"/>
    </vehicle>
    <vehicle id="113" depart="56.50">
        <route edges="6/2to6/3 6/3to5/3 5/3to5/4 5/4to5/5 5/5to5/6 5/6to6/6"/>
    </vehicle>
    <vehicle id="114" depart="57.00">
        <route edges="9/4to9/3 9/3to8/3 8/3to7/3 7/3to6/3 6/3to5/3 5/3to4/3 4/3to4/2 4/2to3/2"/>
    </vehicle>
    <vehicle id="115" depart="57.50">
        <route edges="6/1to6/0 6/0to5/0 5/0to4/0 4/0to3/0 3/0to3/1 3/1to3/2 3/2to3/3 3/3to3/4 3/4to3/5 3/5to3/6 3/6to3/7 3/7to3/8 3/8to3/9 3/9to2/9"/>
    </vehicle>
    <vehicle id="116" depart="58.00">
        <route edges="7/3to8/3 8/3to7/3 7/3to6/3 6/3to5/3 5/3to5/4 5/4to5/5 5/5to5/6 5/6to5/7 5/7to5/8 5/8to5/9 5/9to5/10"/>
    </vehicle>
    <vehicle id="117" depart="58.50">
        <route edges="4/5to4/4 4/4to5/4 5/4to6/4 6/4to6/3"/>
    </vehicle>
    <vehicle id="118" depart="59.00">
        <route edges="10/3to10/4 10/4to10/3"/>
    </vehicle>
    <vehicle id="119" depart="59.50">
        <route edges="2/8to2/9 2/9to2/8 2/8to2/7 2/7to2/6 2/6to2/5 2/5to2/4 2/4to2/3 2/3to2/2 2/2to2/1 2/1to2/0 2/0to3/0 3/0to4/0 4/0to5/0 5/0to6/0 6/0to7/0 7/0to7/1"/>
    </vehicle>
    <vehicle id="120" depart="60.00">
        <route edges="3/7to3/8 3/8to3/9 3/9to3/10 3/10to4/10 4/10to5/10 5/10to6/10 6/10to7/10 7/10to8/10 8/10to9/10 9/10to9/9"/>
    </vehicle>
    <vehicle id="121" depart="60.50">
        <route edges="10/2to9/2 9/2to8/2 8/2to7/2 7/2to6/2 6/2to5/2 5/2to4/2 4/2to3/2 3/2to2/2 2/2to2/1 2/1to3/1"/>
    </vehicle>
    <vehicle id="122" depart="61.00">
        <route edges="4/6to4/5 4/5to5/5 5/5to6/5 6/5to7/5 7/5to8/5 8/5to9/5 9/5to10/5 10/5to10/6"/>
    </vehicle>
    <vehicle id="123" depart="61.50">
        <route edges="4/2to5/2 5/2to4/2 4/2to3/2 3/2to3/1"/>
    </vehicle>
    <vehicle id="124" depart="62.00">
        <route edges="3/1to4/1 4/1to4/2 4/2to4/3 4/3to4/4 4/4to5/4 5/4to6/4 6/4to7/4 7/4to8/4 8/4to9/4 9/4to9/5"/>
    </vehicle>
    <vehicle id="125" depart="62.50">
        <route edges="4/6to4/7 4/7to3/7 3/7to3/6 3/6to4/6"/>
    </vehicle>
    <vehicle id="126" depart="63.00">
        <route edges="1/1to2/1 2/1to2/0 2/0to2/1"/>
    </vehicle>
    <vehicle id="127" depart="63.50">
        <route edges="9/6to9/5 9/5to9/4 9/4to9/3 9/3to9/2 9/2to9/1 9/1to9/0 9/0to8/0"/>
    </vehicle>
    <vehicle id="128" depart="64.00">
        <route edges="8/10to9/10 9/10to8/10 8/10to7/10 7/10to6/10 6/10to5/10 5/10to5/9 5/9to5/8 5/8to5/7 5/7to5/6 5/6to5/5 5/5to5/4 5/4to5/3 5/3to5/2 5/2to5/1 5/1to5/2"/>
    </vehicle>
    <vehicle id="129" depart="64.50">
        <route edges="9/0to10/0 10/0to9/0 9/0to8/0 8/0to8/1 8/1to8/2 8/2to8/3 8/3to7/3"/>
    </vehicle>
    <vehicle id="130" depart="65.00">
        <route edges="5/9to6/9 6/9to5/9 5/9to4/9 4/9to3/9 3/9to2/9 2/9to1/9 1/9to1/8 1/8to1/9"/>
    </vehicle>
    <vehicle id="131" depart="65.50">
        <route edges="2/4to1/4 1/4to2/4 2/4to3/4 3/4to4/4 4/4to5/4 5/4to6/4 6/4to7/4 7/4to8/4 8/4to9/4 9/4to10/4 10/4to10/5 10/5to10/6 10/6to10/7 10/7to10/8 10/8to10/9 10/9to10/8"/>
    </vehicle>
    <vehicle id="132" depart="66.00">
        <route edges="4/9to4/10 4/10to4/9 4/9to4/8 4/8to4/7 4/7to4/6 4/6to4/5 4/5to4/4 4/4to5/4 5/4to6/4 6/4to6/5"/>
    </vehicle>
    <vehicle id="133" depart="66.50">
        <route edges="5/0to6/0 6/0to5/0 5/0to4/0 4/0to3/0 3/0to2/0 2/0to2/1 2/1to2/2 2/2to2/3 2/3to2/4 2/4to2/5 2/5to2/6 2/6to3/6"/>
    </vehicle>
    <vehicle id="134" depart="67.00">
        <route edges="5/9to5/8 5/8to4/8 4/8to3/8 3/8to2/8 2/8to2/7 2/7to2/6 2/6to2/5 2/5to2/4 2/4to2/3 2/3to2/2 2/2to2/1 2/1to3/1"/>
    </vehicle>
    <vehicle id="135" depart="67.50">
        <route edges="4/2to5/2 5/2to4/2 4/2to3/2 3/2to3/3 3/3to3/4 3/4to4/4"/>
    </vehicle>
    <vehicle id="136" depart="68.00">
        <route edges="3/9to4/9 4/9to4/8 4/8to4/7 4/7to4/6 4/6to4/5 4/5to5/5 5/5to6/5"/>
    </vehicle>
    <vehicle id="137" depart="68.50">
        <route edges="7/3to6/3 6/3to6/4 6/4to6/5 6/5to6/6 6/6to7/6 7/6to7/5"/>
    </vehicle>
    <vehicle id="138" depart="69.00">
        <route edges="5/0to4/0 4/0to3/0 3/0to2/0 2/0to1/0 1/0to1/1 1/1to1/2 1/2to1/3 1/3to1/4 1/4to1/5"/>
    </vehicle>
    <vehicle id="139" depart="69.50">
        <route edges="1/2to1/3 1/3to1/4 1/4to1/5 1/5to1/6 1/6to1/7 1/7to1/8 1/8to1/9 1/9to1/10 1/10to2/10 2/10to3/10"/>
    </vehicle>
    <vehicle id="140" depart="70.00">
        <route edges="6/10to7/10 7/10to7/9 7/9to7/8 7/8to7/7 7/7to7/6 7/6to7/5 7/5to7/4 7/4to8/4 8/4to7/4"/>
    </vehicle>
    <vehicle id="141" depart="70.50">
        <route edges="2/1to2/0 2/0to2/1 2/1to2/2 2/2to2/3 2/3to2/4 2/4to2/5 2/5to2/6 2/6to3/6 3/6to3/7"/>
    </vehicle>
    <vehicle id="142" depart="71.00">
        <route edges="8/0to7/0 7/0to6/0 6/0to5/0 5/0to4/0 4/0to4/1 4/1to4/2"/>
    </vehicle>
    <vehicle id="143" depart="71.50">
        <route edges="2/2to2/3 2/3to2/4 2/4to2/5 2/5to2/6 2/6to3/6 3/6to4/6 4/6to5/6 5/6to6/6 6/6to7/6 7/6to6/6"/>
    </vehicle>
    <vehicle id="144" depart="72.00">
        <route edges="3/4to3/5 3/5to3/4 3/4to3/3 3/3to4/3 4/3to5/3 5/3to5/4"/>
    </vehicle>
    <vehicle id="145" depart="72.50">
        <route edges="10/8to10/7 10/7to9/7 9/7to8/7 8/7to7/7 7/7to7/6 7/6to7/5 7/5to7/4 7/4to7/3 7/3to7/2 7/2to7/1 7/1to7/0 7/0to6/0"/>
    </vehicle>
    <vehicle id="146" depart="73.00">
        <route edges="3/0to4/0 4/0to4/1 4/1to4/2 4/2to4/3 4/3to4/4 4/4to4/5 4/5to4/6 4/6to5/6 5/6to6/6 6/6to6/5"/>
    </vehicle>
    <vehicle id="147" depart="73.50">
        <route edges="7/7to7/8 7/8to6/8 6/8to6/9 6/9to7/9"/>
    </vehicle>
    <vehicle id="148" depart="74.00">
        <route edges="6/8to6/9 6/9to5/9 5/9to4/9 4/9to3/9 3/9to3/8 3/8to3/7 3/7to3/6 3/6to3/5 3/5to3/4 3/4to3/3 3/3to3/2 3/2to3/3"/>
    </vehicle>
    <vehicle id="149" depart="74.50">
        <route edges="10/7to10/8 10/8to9/8 9/8to8/8 8/8to7/8 7/8to6/8 6/8to5/8 5/8to4/8 4/8to3/8 3/8to2/8 2/8to1/8 1/8to1/9 1/9to1/8"/>
    </vehicle>
    <vehicle id="150" depart="75.00">
        <route edges="7/7to7/6 7/6to8/6 8/6to9/6 9/6to10/6 10/6to10/5 10/5to10/4 10/4to10/3 10/3to10/2"/>
    </vehicle>
    <vehicle id="151" depart="75.50">
        <route edges="2/10to1/10 1/10to1/9 1/9to1/8 1/8to1/7 1/7to2/7 2/7to3/7 3/7to4/7 4/7to5/7"/>
    </vehicle>
    <vehicle id="152" depart="76.00">
        <route edges="5/3to4/3 4/3to4/2 4/2to4/1 4/1to5/1 5/1to6/1 6/1to7/1 7/1to8/1 8/1to9/1 9/1to9/0"/>
    </vehicle>
    <vehicle id="153" depart="76.50">
        <route edges="7/7to6/7 6/7to5/7 5/7to4/7 4/7to3/7 3/7to2/7 2/7to1/7 1/7to1/6 1/6to1/5 1/5to1/4 1/4to1/3 1/3to1/2 1/2to1/1"/>
    </vehicle>
    <vehicle id="154" depart="77.00">
        <route edges="5/2to4/2 4/2to3/2 3/2to2/2 2/2to1/2 1/2to0/2 0/2to0/3 0/3to0/4 0/4to0/5 0/5to0/6 0/6to1/6"/>
    </vehicle>
    <vehicle id="155" depart="77.50">
        <route edges="5/0to5/1 5/1to4/1 4/1to3/1 3/1to3/2 3/2to3/3 3/3to3/4 3/4to3/5 3/5to3/4"/>
    </vehicle>
    <vehicle id="156" depart="78.00">
        <route edges="5/3to4/3 4/3to3/3 3/3to3/4 3/4to3/5 3/5to3/6 3/6to3/7 3/7to3/8 3/8to3/9 3/9to3/8"/>
    </vehicle>
    <vehicle id="157" depart="78.50">
        <route edges="0/9to0/10 0/10to0/9 0/9to0/8 0/8to0/7 0/7to0/6 0/6to1/6 1/6to2/6 2/6to3/6 3/6to4/6 4/6to5/6 5/6to6/6 6/6to7/6 7/6to8/6 8/6to9/6 9/6to8/6"/>
    </vehicle>
    <vehicle id="158" depart="79.00">
        <route edges="9/5to8/5 8/5to7/5 7/5to6/5 6/5to5/5 5/5to5/4 5/4to5/3 5/3to5/2 5/2to5/1 5/1to5/0"/>
    </vehicle>
    <vehicle id="159" depart="79.50">
        <route edges="1/10to1/9 1/9to2/9 2/9to3/9 3/9to4/9 4/9to5/9 5/9to6/9 6/9to7/9 7/9to8/9 8/9to9/9 9/9to10/9 10/9to10/8 10/8to10/7 10/7to10/6 10/6to10/5 10/5to10/4 10/4to10/3 10/3to10/2 10/2to10/1 10/1to9/1"/>
    </vehicle>
    <vehicle id="160" depart="80.00">
        <route edges="0/2to0/3 0/3to0/4 0/4to0/5 0/5to1/5 1/5to2/5 2/5to3/5 3/5to4/5 4/5to4/6"/>
    </vehicle>
    <vehicle id="161" depart="80.50">
        <route edges="8/6to9/6 9/6to8/6 8/6to8/5 8/5to8/4"/>
    </vehicle>
    <vehicle id="162" depart="81.00">
        <route edges="9/3to9/2 9/2to8/2 8/2to7/2 7/2to6/2 6/2to5/2 5/2to4/2 4/2to3/2 3/2to2/2 2/2to2/3 2/3to3/3"/>
    </vehicle>
    <vehicle id="163" depart="81.50">
        <route edges="2/6to3/6 3/6to3/7 3/7to3/8 3/8to3/9 3/9to4/9 4/9to5/9 5/9to6/9 6/9to7/9 7/9to8/9 8/9to8/10"/>
    </vehicle>
    <vehicle id="164" depart="82.00">
        <route edges="5/9to5/8 5/8to5/7 5/7to5/6 5/6to5/5 5/5to5/4 5/4to6/4 6/4to7/4 7/4to8/4 8/4to8/3"/>
    </vehicle>
    <vehicle id="165" depart="82.50">
        <route edges="1/1to1/2 1/2to2/2 2/2to3/2 3/2to4/2 4/2to5/2 5/2to6/2 6/2to7/2 7/2to8/2 8/2to9/2 9/2to10/2 10/2to10/3 10/3to10/4"/>
    </vehicle>
    <vehicle id="166" depart="83.00">
        <route edges="2/7to3/7 3/7to3/8 3/8to3/9 3/9to4/9 4/9to5/9 5/9to6/9 6/9to6/10"/>
    </vehicle>
    <vehicle id="167" depart="83.50">
        <route edges="9/7to10/7 10/7to9/7 9/7to8/7 8/7to7/7 7/7to6/7 6/7to5/7 5/7to5/6"/>
    </vehicle>
    <vehicle id="168" depart="84.00">
        <route edges="2/10to3/10 3/10to2/10 2/10to2/9 2/9to2/8 2/8to2/7 2/7to2/6"/>
    </vehicle>
    <vehicle id="169" depart="84.50">
        <route edges="4/5to4/6 4/6to4/5 4/5to4/4 4/4to4/3 4/3to5/3 5/3to6/3 6/3to7/3 7/3to8/3 8/3to9/3 9/3to9/2"/>
    </vehicle>
    <vehicle id="170" depart="85.00">
        <route edges="8/9to9/9 9/9to8/9 8/9to7/9 7/9to6/9 6/9to5/9 5/9to4/9 4/9to3/9 3/9to2/9 2/9to1/9 1/9to0/9 0/9to0/8 0/8to0/9"/>
    </vehicle>
    <vehicle id="171" depart="85.50">
        <route edges="3/3to3/4 3/4to2/4 2/4to1/4 1/4to1/5 1/5to1/6 1/6to2/6"/>
    </vehicle>
    <vehicle id="172" depart="86.00">
        <route edges="7/6to7/5 7/5to8/5 8/5to9/5 9/5to10/5 10/5to10/6 10/6to10/7 10/7to10/8 10/8to9/8"/>
    </vehicle>
    <vehicle id="173" depart="86.50">
        <route edges="9/6to10/6 10/6to9/6 9/6to8/6 8/6to7/6 7/6to6/6 6/6to5/6 5/6to4/6 4/6to3/6 3/6to2/6 2/6to1/6 1/6to1/5 1/5to1/4 1/4to1/3 1/3to1/4"/>
    </vehicle>
    <vehicle id="174" depart="87.00">
        <route edges="2/8to2/9 2/9to2/8 2/8to2/7 2/7to2/6 2/6to2/5 2/5to2/4 2/4to2/3 2/3to2/2 2/2to3/2 3/2to4/2 4/2to5/2 5/2to4/2"/>
    </vehicle>
    <vehicle id="175" depart="87.50">
        <route edges="4/6to3/6 3/6to3/5 3/5to3/4 3/4to4/4 4/4to5/4 5/4to6/4 6/4to7/4 7/4to8/4 8/4to9/4 9/4to10/4"/>
    </vehicle>
    <vehicle id="176" depart="88.00">
        <route edges="4/2to5/2 5/2to5/3 5/3to5/4 5/4to5/5 5/5to6/5 6/5to5/5"/>
    </vehicle>
    <vehicle id="177" depart="88.50">
        <route edges="2/5to2/6 2/6to2/5 2/5to2/4 2/4to2/3 2/3to2/2 2/2to2/1 2/1to3/1 3/1to4/1 4/1to5/1 5/1to6/1 6/1to5/1"/>
    </vehicle>
    <vehicle id="178" depart="89.00">
        <route edges="8/4to9/4 9/4to8/4 8/4to7/4 7/4to6/4 6/4to5/4 5/4to4/4 4/4to3/4 3/4to2/4 2/4to2/5 2/5to2/6 2/6to2/5"/>
    </vehicle>
    <vehicle id="179" depart="89.50">
        <route edges="6/1to6/0 6/0to5/0 5/0to4/0 4/0to4/1 4/1to4/2 4/2to4/3 4/3to4/4 4/4to5/4"/>
    </vehicle>