<?xml version="1.0" encoding="UTF-8"?>

<!-- generated on Mon Aug 14 08:25:54 2017 by SUMO duarouter Version 0.30.0
<?xml version="1.0" encoding="UTF-8"?>

<configuration xmlns:xsi="http://www.w3.org/2001/XMLSchema-instance" xsi:noNamespaceSchemaLocation="http://sumo.dlr.de/xsd/duarouterConfiguration.xsd">

    <input>
        <net-file value="diag1.net.xml"/>
        <trip-files value="diag1-sparse.trips.xml"/>
    </input>

    <output>
        <output-file value="diag1-sparse.rou.xml"/>
    </output>

</configuration>
-->

<routes xmlns:xsi="http://www.w3.org/2001/XMLSchema-instance" xsi:noNamespaceSchemaLocation="http://sumo.dlr.de/xsd/routes_file.xsd">
    <vehicle id="0" depart="0.00">
        <route edges="2/0to3/0 3/0to3/1 3/1to3/2 3/2to4/2 4/2to4/3 4/3to4/4 4/4to4/5 4/5to4/6 4/6to4/7 4/7to4/8 4/8to4/9 4/9to4/10 4/10to4/11 4/11to4/12 4/12to5/12"/>
    </vehicle>
    <vehicle id="1" depart="1.00">
        <route edges="2/7to2/6 gneE0 3/9to3/10 3/10to3/11 3/11to4/11 4/11to4/12 4/12to3/12"/>
    </vehicle>
    <vehicle id="2" depart="2.00">
        <route edges="3/10to3/9 3/9to2/9 2/9to2/10 2/10to2/11"/>
    </vehicle>
    <vehicle id="3" depart="3.00">
        <route edges="0/10to0/9 0/9to0/10 -gneE3 1/5to1/4 gneE6 4/2to4/1 4/1to4/0 4/0to4/1"/>
    </vehicle>
    <vehicle id="4" depart="4.00">
        <route edges="4/0to3/0 3/0to4/0 4/0to5/0"/>
    </vehicle>
    <vehicle id="5" depart="5.00">
        <route edges="0/12to0/11"/>
    </vehicle>
    <vehicle id="6" depart="6.00">
        <route edges="5/2to4/2 4/2to3/2 3/2to2/2 2/2to1/2 1/2to1/3 1/3to1/4"/>
    </vehicle>
    <vehicle id="7" depart="7.00">
        <route edges="3/7to2/7 2/7to2/8 2/8to2/9 2/9to2/10 2/10to1/10 1/10to2/10"/>
    </vehicle>
    <vehicle id="8" depart="8.00">
        <route edges="1/5to2/5 2/5to2/6 gneE0 3/9to3/10 3/10to3/11 3/11to4/11 4/11to4/10"/>
    </vehicle>
    <vehicle id="9" depart="9.00">
        <route edges="4/7to4/6 4/6to3/6 -gneE1 2/9to2/10 2/10to2/9"/>
    </vehicle>
    <vehicle id="10" depart="10.00">
        <route edges="5/15to5/14 5/14to5/13 5/13to5/12 5/12to5/11 5/11to5/10 -gneE2 4/5to4/4 4/4to3/4 3/4to2/4 2/4to1/4 1/4to0/4 0/4to1/4"/>
    </vehicle>
    <vehicle id="11" depart="11.00">
        <route edges="1/12to2/12 2/12to2/11 2/11to2/10 2/10to2/11"/>
    </vehicle>
    <vehicle id="12" depart="12.00">
        <route edges="1/14to0/14 0/14to0/13 0/13to0/12 0/12to0/11 0/11to0/10 -gneE3 1/5to1/4 1/4to2/4 2/4to3/4 3/4to4/4 4/4to4/3 4/3to5/3 5/3to5/4"/>
    </vehicle>
    <vehicle id="13" depart="13.00">
        <route edges="4/15to3/15 3/15to3/14 3/14to4/14 4/14to3/14"/>
    </vehicle>
    <vehicle id="14" depart="14.00">
        <route edges="1/13to0/13 0/13to1/13 1/13to2/13 2/13to2/12 2/12to3/12 3/12to2/12"/>
    </vehicle>
    <vehicle id="15" depart="15.00">
        <route edges="2/14to1/14 1/14to1/13 1/13to1/12 1/12to1/11 1/11to1/10 1/10to2/10"/>
    </vehicle>
    <vehicle id="16" depart="16.00">
        <route edges="4/4to4/3 4/3to4/4 4/4to4/5 4/5to4/6 4/6to4/7 4/7to4/8 4/8to4/9 4/9to4/10"/>
    </vehicle>
    <vehicle id="17" depart="17.00">
        <route edges="4/7to3/7 3/7to3/6 3/6to3/5 3/5to3/4 3/4to4/4 4/4to4/3 4/3to4/2 4/2to4/1 4/1to5/1"/>
    </vehicle>
    <vehicle id="18" depart="18.00">
        <route edges="2/10to2/11 2/11to3/11 3/11to4/11 4/11to4/12 4/12to4/13 4/13to4/14 4/14to3/14"/>
    </vehicle>
    <vehicle id="19" depart="19.00">
        <route edges="3/1to4/1 4/1to4/2 4/2to4/3 4/3to4/4 4/4to4/5 4/5to4/6 4/6to4/7 4/7to4/8 4/8to5/8 5/8to5/9"/>
    </vehicle>
    <vehicle id="20" depart="20.00">
        <route edges="-gneE5 4/11to4/10 4/10to5/10 5/10to5/9 5/9to5/8 5/8to5/7 5/7to4/7"/>
    </vehicle>
    <vehicle id="21" depart="21.00">
        <route edges="0/15to0/14 0/14to0/13 0/13to0/12 0/12to0/11 0/11to0/10 0/10to1/10 1/10to2/10"/>
    </vehicle>
    <vehicle id="22" depart="22.00">
        <route edges="2/10to3/10 3/10to3/9 3/9to2/9 2/9to2/8 2/8to1/8 1/8to1/9"/>
    </vehicle>
    <vehicle id="23" depart="23.00">
        <route edges="3/13to2/13 2/13to2/12 2/12to2/11 2/11to2/10 2/10to2/9 gneE1 3/6to3/5 3/5to3/4 3/4to4/4 4/4to4/3 4/3to4/2 4/2to4/1 4/1to4/2"/>
    </vehicle>
    <vehicle id="24" depart="24.00">
        <route edges="0/4to1/4 1/4to2/4 2/4to3/4 3/4to4/4 4/4to4/5 4/5to4/6 4/6to4/5"/>
    </vehicle>
    <vehicle id="25" depart="25.00">
        <route edges="-gneE2 4/5to4/6 4/6to4/7 4/7to4/8 4/8to5/8 5/8to5/7"/>
    </vehicle>
    <vehicle id="26" depart="26.00">
        <route edges="5/10to5/11 5/11to4/11 4/11to3/11 3/11to3/10 3/10to2/10 2/10to1/10"/>
    </vehicle>
    <vehicle id="27" depart="27.00">
        <route edges="4/0to3/0 3/0to3/1 3/1to3/2 3/2to2/2 2/2to1/2 1/2to1/3 1/3to1/4 1/4to0/4 0/4to0/5"/>
    </vehicle>
    <vehicle id="28" depart="28.00">
        <route edges="0/7to0/6 0/6to1/6 1/6to2/6 2/6to3/6 3/6to3/7 3/7to3/8 3/8to4/8 4/8to3/8"/>
    </vehicle>
    <vehicle id="29" depart="29.00">
        <route edges="2/7to3/7 3/7to3/8 3/8to3/9 3/9to2/9 2/9to2/10 2/10to2/9"/>
    </vehicle>
    <vehicle id="30" depart="30.00">
        <route edges="1/11to1/12 1/12to1/11 1/11to2/11 2/11to2/10 2/10to2/9 gneE1 3/6to4/6 4/6to4/5 4/5to5/5"/>
    </vehicle>
    <vehicle id="31" depart="31.00">
        <route edges="1/14to1/15 1/15to1/14 1/14to1/13 1/13to1/12 1/12to1/11 1/11to2/11 2/11to2/10 2/10to2/9 2/9to2/8 2/8to3/8"/>
    </vehicle>
    <vehicle id="32" depart="32.00">
        <route edges="0/7to1/7 1/7to2/7 2/7to2/6"/>
    </vehicle>
    <vehicle id="33" depart="33.00">
        <route edges="3/2to4/2 4/2to4/3 4/3to4/4 4/4to4/3"/>
    </vehicle>
    <vehicle id="34" depart="34.00">
        <route edges="4/0to4/1 4/1to4/2 4/2to3/2 3/2to2/2 2/2to1/2 1/2to1/3 1/3to2/3"/>
    </vehicle>
    <vehicle id="35" depart="35.00">
        <route edges="4/11to5/11 5/11to4/11 4/11to3/11 3/11to2/11 2/11to1/11 1/11to1/10 1/10to1/9 1/9to1/8 1/8to1/7 1/7to1/8"/>
    </vehicle>
    <vehicle id="36" depart="36.00">
        <route edges="4/3to5/3 5/3to4/3 4/3to4/4 4/4to3/4 3/4to3/5 3/5to3/6 -gneE1 2/9to2/10 2/10to2/11 2/11to1/11 1/11to1/10"/>
    </vehicle>
    <vehicle id="37" depart="37.00">
        <route edges="4/13to4/14 4/14to4/13 4/13to4/12 4/12to4/11 4/11to4/10 4/10to4/9 4/9to4/8 4/8to4/7 4/7to4/6"/>
    </vehicle>
    <vehicle id="38" depart="38.00">
        <route edges="0/1to0/2 0/2to1/2 -gneE7 4/4to4/5 gneE2 5/10to5/11"/>
    </vehicle>
    <vehicle id="39" depart="39.00">
        <route edges="4/8to4/9 4/9to4/10 4/10to4/11 4/11to4/12 4/12to4/13 4/13to3/13 3/13to3/14 3/14to4/14"/>
    </vehicle>
    <vehicle id="40" depart="40.00">
        <route edges="4/8to4/7 4/7to4/6 4/6to4/5 4/5to4/4 4/4to4/3 4/3to4/2 4/2to3/2 3/2to4/2"/>
    </vehicle>
    <vehicle id="41" depart="41.00">
        <route edges="2/8to1/8 1/8to1/7 1/7to1/6 1/6to1/5 1/5to1/4"/>
    </vehicle>
    <vehicle id="42" depart="42.00">
        <route edges="4/1to4/0 4/0to4/1 4/1to4/2 4/2to4/3 4/3to4/4 4/4to4/3"/>
    </vehicle>
    <vehicle id="43" depart="43.00">
        <route edges="1/14to0/14 0/14to0/13 0/13to1/13 1/13to1/12 1/12to1/11"/>
    </vehicle>
    <vehicle id="44" depart="44.00">
        <route edges="3/14to4/14 4/14to4/13 4/13to4/12 4/12to4/11 4/11to4/10 4/10to4/9 4/9to4/8 4/8to4/7 4/7to4/6 4/6to4/5 4/5to5/5 5/5to5/4 5/4to5/3 5/3to5/2 5/2to4/2"/>
    </vehicle>
    <vehicle id="45" depart="45.00">
        <route edges="3/11to3/12 3/12to3/11 3/11to2/11 2/11to1/11 1/11to0/11 0/11to0/12"/>
    </vehicle>
    <vehicle id="46" depart="46.00">
        <route edges="3/10to3/11 3/11to4/11 4/11to4/10 4/10to4/9 4/9to4/8 4/8to4/7 4/7to5/7"/>
    </vehicle>
    <vehicle id="47" depart="47.00">
        <route edges="1/7to2/7 2/7to2/6 2/6to3/6 3/6to3/5 3/5to3/4 3/4to4/4 4/4to4/3 4/3to4/2 4/2to4/1 4/1to5/1 5/1to4/1"/>
    </vehicle>
    <vehicle id="48" depart="48.00">
        <route edges="5/1to4/1 4/1to4/2 4/2to4/3 4/3to4/4 4/4to3/4 3/4to3/5 3/5to3/6 -gneE1 2/9to2/8"/>
    </vehicle>
    <vehicle id="49" depart="49.00">
        <route edges="1/8to0/8 0/8to0/9 0/9to0/10 0/10to1/10 1/10to1/11 1/11to2/11 2/11to3/11 3/11to4/11 4/11to3/11"/>
    </vehicle>
    <vehicle id="50" depart="50.00">
        <route edges="5/11to4/11 4/11to3/11 3/11to2/11 2/11to1/11 1/11to1/10 1/10to0/10 -gneE3"/>
    </vehicle>
    <vehicle id="51" depart="51.00">
        <route edges="gneE5 1/13to1/12 1/12to1/11 1/11to2/11 2/11to3/11 3/11to4/11 4/11to4/10 4/10to5/10 5/10to5/9 5/9to5/8 5/8to5/9"/>
    </vehicle>
    <vehicle id="52" depart="52.00">
        <route edges="2/4to2/5 2/5to2/6 2/6to2/7 2/7to2/8 2/8to2/9 2/9to2/10 2/10to1/10 1/10to0/10"/>
    </vehicle>
    <vehicle id="53" depart="53.00">
        <route edges="5/11to5/12 5/12to5/11 5/11to5/10 -gneE2 4/5to4/4 4/4to3/4 3/4to2/4 2/4to3/4"/>
    </vehicle>
    <vehicle id="54" depart="54.00">
        <route edges="2/4to3/4 3/4to4/4 4/4to4/5 4/5to4/6 4/6to4/7 4/7to4/8 4/8to4/9 4/9to4/10 4/10to4/9"/>
    </vehicle>
    <vehicle id="55" depart="55.00">
        <route edges="1/6to0/6 0/6to0/7 0/7to0/8 0/8to0/9 0/9to0/10 0/10to1/10 1/10to1/11 gneE4 4/13to4/14 4/14to4/13"/>
    </vehicle>
    <vehicle id="56" depart="56.00">
        <route edges="1/7to0/7 0/7to0/6 0/6to0/5"/>
    </vehicle>
    <vehicle id="57" depart="57.00">
        <route edges="gneE1 3/6to3/7 3/7to3/8 3/8to3/9 3/9to4/9"/>
    </vehicle>
    <vehicle id="58" depart="58.00">
        <route edges="1/15to0/15 0/15to0/14 0/14to0/13 0/13to1/13 1/13to2/13 2/13to3/13 3/13to4/13 4/13to3/13"/>
    </vehicle>
    <vehicle id="59" depart="59.00">
        <route edges="-gneE4 1/11to2/11 2/11to2/10 2/10to2/9 2/9to2/8 2/8to2/7 2/7to2/6 2/6to1/6"/>
    </vehicle>
    <vehicle id="60" depart="60.00">
        <route edges="2/5to1/5 1/5to1/6 1/6to1/7 1/7to1/6"/>
    </vehicle>
    <vehicle id="61" depart="61.00">
        <route edges="2/9to2/8 2/8to2/9 2/9to2/10 2/10to2/11 2/11to1/11 1/11to1/12 1/12to1/13 1/13to1/14 1/14to1/15 1/15to0/15"/>
    </vehicle>
    <vehicle id="62" depart="62.00">
        <route edges="4/5to4/6 4/6to4/7 4/7to4/8 4/8to4/9 4/9to4/10 4/10to4/11 4/11to4/12 4/12to4/13 4/13to4/14 4/14to4/15"/>
    </vehicle>
    <vehicle id="63" depart="63.00">
        <route edges="3/4to3/5 3/5to3/4 3/4to3/3 3/3to3/2 3/2to3/1 3/1to2/1 2/1to2/0"/>
    </vehicle>
    <vehicle id="64" depart="64.00">
        <route edges="1/6to2/6 2/6to3/6 3/6to3/5 3/5to3/4 3/4to3/3 3/3to3/2 3/2to3/3"/>
    </vehicle>
    <vehicle id="65" depart="65.00">
        <route edges="3/4to4/4 4/4to4/5 4/5to4/6 4/6to4/7 4/7to4/8 4/8to4/9 4/9to4/10 4/10to3/10"/>
    </vehicle>
    <vehicle id="66" depart="66.00">
        <route edges="4/9to4/8 4/8to4/9 4/9to4/10 4/10to4/11 gneE5 1/13to1/14 1/14to0/14 0/14to0/15"/>
    </vehicle>
    <vehicle id="67" depart="67.00">
        <route edges="1/0to2/0 2/0to2/1 2/1to2/2 2/2to2/1"/>
    </vehicle>
    <vehicle id="68" depart="68.00">
        <route edges="0/8to0/7 0/7to0/6 0/6to1/6 1/6to1/5 1/5to1/4 1/4to2/4 2/4to3/4 3/4to2/4"/>
    </vehicle>
    <vehicle id="69" depart="69.00">
        <route edges="3/7to3/6 -gneE1 2/9to2/10 2/10to2/11 2/11to1/11 1/11to1/10"/>
    </vehicle>
    <vehicle id="70" depart="70.00">
        <route edges="1/3to0/3 0/3to0/4 0/4to0/5 0/5to0/6 0/6to0/7 0/7to0/8 0/8to0/9 0/9to0/10 0/10to0/11 0/11to0/12 0/12to0/13 0/13to0/14 0/14to0/15 0/15to1/15"/>
    </vehicle>
    <vehicle id="71" depart="71.00">
        <route edges="5/4to5/3 5/3to5/4 5/4to5/5 5/5to4/5 4/5to4/6 4/6to4/7 4/7to4/8 4/8to4/7"/>
    </vehicle>
    <vehicle id="72" depart="72.00">
        <route edges="5/11to5/10 5/10to5/11 5/11to5/12 5/12to5/13 5/13to5/14 5/14to5/13"/>
    </vehicle>
    <vehicle id="73" depart="73.00">
        <route edges="0/2to0/1 0/1to0/2 0/2to1/2 1/2to1/3 1/3to1/4 1/4to2/4 2/4to2/3"/>
    </vehicle>
    <vehicle id="74" depart="74.00">
        <route edges="5/2to5/1 5/1to5/0 5/0to5/1"/>
    </vehicle>
    <vehicle id="75" depart="75.00">
        <route edges="5/11to5/12 5/12to5/11 5/11to5/10 5/10to5/9 5/9to4/9 4/9to4/10"/>
    </vehicle>
    <vehicle id="76" depart="76.00">
        <route edges="3/5to4/5 4/5to4/6 4/6to3/6 3/6to2/6 2/6to1/6 1/6to0/6 0/6to0/5"/>
    </vehicle>
    <vehicle id="77" depart="77.00">
        <route edges="3/10to3/11 3/11to3/10 3/10to3/9 -gneE0 2/6to2/5"/>
    </vehicle>
    <vehicle id="78" depart="78.00">
        <route edges="3/14to3/15 3/15to3/14 3/14to3/13 3/13to3/12 3/12to3/11 3/11to3/10 3/10to3/9 -gneE0 2/6to2/5 2/5to2/4 2/4to1/4 1/4to1/3 1/3to1/2 1/2to1/1 1/1to1/0 1/0to1/1"/>
    </vehicle>
    <vehicle id="79" depart="79.00">
        <route edges="-gneE0 2/6to2/5 2/5to2/4 2/4to1/4 1/4to2/4"/>
    </vehicle>
    <vehicle id="80" depart="80.00">
        <route edges="gneE7 1/2to1/3 1/3to1/4 1/4to2/4 2/4to2/5 2/5to2/6 gneE0 3/9to3/10 3/10to3/11 3/11to4/11 4/11to4/12 4/12to4/13 4/13to4/14 4/14to3/14"/>
    </vehicle>
    <vehicle id="81" depart="81.00">
        <route edges="3/12to2/12 2/12to2/11 2/11to2/10 2/10to2/9 2/9to2/8 2/8to2/7 2/7to1/7"/>
    </vehicle>
    <vehicle id="82" depart="82.00">
        <route edges="4/3to5/3 5/3to4/3 4/3to4/4 4/4to3/4 3/4to2/4 2/4to2/5"/>
    </vehicle>
    <vehicle id="83" depart="83.00">
        <route edges="2/11to3/11 3/11to4/11 4/11to4/10 4/10to4/9 4/9to4/8 4/8to4/7 4/7to4/6 4/6to4/5 4/5to3/5"/>
    </vehicle>
    <vehicle id="84" depart="84.00">
        <route edges="3/10to3/9 3/9to3/8 3/8to3/7 3/7to3/6 3/6to2/6"/>
    </vehicle>
    <vehicle id="85" depart="85.00">
        <route edges="-gneE6 1/4to2/4 2/4to2/5 2/5to2/6 gneE0 3/9to3/10 3/10to3/11 3/11to4/11 4/11to4/12 4/12to4/13 -gneE4"/>
    </vehicle>
    <vehicle id="86" depart="86.00">
        <route edges="0/0to0/1 0/1to0/2 0/2to1/2 1/2to1/3 1/3to1/4 1/4to2/4 2/4to2/5 2/5to2/6 gneE0 3/9to3/10 3/10to3/9"/>
    </vehicle>
    <vehicle id="87" depart="87.00">
        <route edges="1/6to0/6 0/6to0/7 0/7to0/8 0/8to0/9 0/9to0/10 0/10to1/10 1/10to1/11 1/11to1/12 1/12to2/12"/>
    </vehicle>
    <vehicle id="88" depart="88.00">
        <route edges="4/8to4/7 4/7to4/8 4/8to3/8 3/8to3/9 3/9to3/10 3/10to3/9"/>
    </vehicle>
    <vehicle id="89" depart="89.00">
        <route edges="0/0to1/0 1/0to1/1 1/1to1/2 -gneE7 4/4to5/4 5/4to4/4"/>
    </vehicle>
    <vehicle id="90" depart="90.00">
        <route edges="2/5to3/5 3/5to3/4 3/4to3/3 3/3to3/2 3/2to3/1 3/1to3/0 3/0to2/0"/>
    </vehicle>
    <vehicle id="91" depart="91.00">
        <route edges="4/7to4/8 4/8to4/9 4/9to4/10 4/10to4/11 4/11to3/11 3/11to2/11 2/11to1/11 1/11to1/12 1/12to0/12"/>
    </vehicle>
    <vehicle id="92" depart="92.00">
        <route edges="4/11to5/11 5/11to5/10 -gneE2 4/5to4/4 4/4to3/4 3/4to2/4 2/4to2/5"/>
    </vehicle>
    <vehicle id="93" depart="93.00">
        <route edges="5/8to5/7 5/7to5/8 5/8to4/8 4/8to3/8 3/8to3/9 3/9to2/9 2/9to1/9 1/9to0/9 0/9to0/8"/>
    </vehicle>
    <vehicle id="94" depart="94.00">
        <route edges="4/14to4/15 4/15to4/14 4/14to4/13 4/13to4/12 4/12to4/11 4/11to3/11 3/11to3/10 3/10to3/9 -gneE0 2/6to2/5 2/5to2/4 2/4to1/4 1/4to0/4 0/4to1/4"/>
    </vehicle>
    <vehicle id="95" depart="95.00">
        <route edges="1/0to0/0 0/0to0/1 0/1to0/2 0/2to0/3 0/3to0/2"/>
    </vehicle>
    <vehicle id="96" depart="96.00">
        <route edges="2/10to3/10 3/10to3/9 -gneE0 2/6to2/5 2/5to3/5"/>
    </vehicle>
    <vehicle id="97" depart="97.00">
        <route edges="1/0to0/0 0/0to0/1 0/1to0/2 0/2to1/2 1/2to1/3 1/3to1/4 1/4to2/4 2/4to2/5 2/5to2/6 gneE0 3/9to3/10 3/10to3/11 3/11to3/12 3/12to3/13 3/13to3/14 3/14to4/14"/>
    </vehicle>
    <vehicle id="98" depart="98.00">
        <route edges="2/13to1/13 1/13to1/12 1/12to1/11 1/11to2/11 2/11to2/10 2/10to2/9 2/9to3/9 3/9to3/8 3/8to4/8"/>
    </vehicle>
    <vehicle id="99" depart="99.00">
        <route edges="0/13to0/12 0/12to1/12 1/12to1/11 1/11to2/11 2/11to2/10 2/10to2/9 gneE1"/>
    </vehicle>
</routes>
