<?xml version="1.0" encoding="UTF-8"?>

<!-- generated on Fri Aug  4 12:29:51 2017 by SUMO duarouter Version 0.30.0
<?xml version="1.0" encoding="UTF-8"?>

<configuration xmlns:xsi="http://www.w3.org/2001/XMLSchema-instance" xsi:noNamespaceSchemaLocation="http://sumo.dlr.de/xsd/duarouterConfiguration.xsd">

    <input>
        <net-file value="grid.net.xml"/>
        <trip-files value="grid-0p35/grid-0p35.trips.xml"/>
    </input>

    <output>
        <output-file value="grid-0p35/grid-0p35.rou.xml"/>
    </output>

    <processing>
        <ignore-errors value="true"/>
    </processing>

    <time>
        <begin value="0"/>
        <end value="100.0"/>
    </time>

    <report>
        <no-warnings value="true"/>
        <no-step-log value="true"/>
    </report>

</configuration>
-->

<routes xmlns:xsi="http://www.w3.org/2001/XMLSchema-instance" xsi:noNamespaceSchemaLocation="http://sumo.dlr.de/xsd/routes_file.xsd">
    <vehicle id="0" depart="0.00">
        <route edges="2/7to1/7 1/7to1/6 1/6to2/6 2/6to3/6 3/6to3/7 3/7to2/7"/>
    </vehicle>
    <vehicle id="1" depart="0.35">
        <route edges="left5to0/5 0/5to0/4 0/4to0/3 0/3to1/3 1/3to2/3 2/3to3/3 3/3to4/3"/>
    </vehicle>
    <vehicle id="2" depart="0.70">
        <route edges="0/1to0/0 0/0to1/0 1/0to1/1 1/1to1/2 1/2to1/3 1/3to2/3 2/3to2/4"/>
    </vehicle>
    <vehicle id="3" depart="1.05">
        <route edges="top0to0/9 0/9to0/8 0/8to1/8 1/8to2/8 2/8to3/8 3/8to4/8 4/8to4/9"/>
    </vehicle>
    <vehicle id="4" depart="1.40">
        <route edges="4/7to4/8 4/8to3/8 3/8to3/7 3/7to4/7 4/7to4/6"/>
    </vehicle>
    <vehicle id="5" depart="1.75">
        <route edges="4/9to3/9 3/9to3/8 3/8to3/7 3/7to3/6 3/6to4/6"/>
    </vehicle>
    <vehicle id="6" depart="2.10">
        <route edges="3/1to2/1 2/1to2/2 2/2to2/3 2/3to2/4 2/4to2/5 2/5to2/6 2/6to3/6 3/6to3/7 3/7to3/8 3/8to3/9 3/9to4/9 4/9toright9"/>
    </vehicle>
    <vehicle id="7" depart="2.45">
        <route edges="3/2to3/3 3/3to3/4 3/4to3/5 3/5to3/6 3/6to3/7 3/7to3/8"/>
    </vehicle>
    <vehicle id="8" depart="2.80">
        <route edges="2/2to2/1 2/1to3/1 3/1to3/2 3/2to3/3 3/3to4/3 4/3to4/2"/>
    </vehicle>
    <vehicle id="9" depart="3.15">
        <route edges="2/1to1/1 1/1to1/2 1/2to1/3 1/3to1/4 1/4to1/5 1/5to1/6 1/6to0/6 0/6to0/7 0/7to0/8 0/8to0/9 0/9to1/9 1/9to1/8"/>
    </vehicle>
    <vehicle id="10" depart="3.50">
        <route edges="2/2to2/1 2/1to2/0 2/0to1/0 1/0to1/1 1/1to2/1 2/1to2/2"/>
    </vehicle>
    <vehicle id="11" depart="3.85">
        <route edges="4/1to4/2 4/2to4/3 4/3to4/4 4/4to3/4 3/4to2/4 2/4to1/4"/>
    </vehicle>
    <vehicle id="12" depart="4.20">
        <route edges="2/9to3/9 3/9to3/8 3/8to3/7 3/7to3/6 3/6to3/5 3/5to3/4 3/4to2/4 2/4to2/3 2/3to2/2 2/2to2/1 2/1to2/0 2/0to1/0 1/0to0/0 0/0to0/1"/>
    </vehicle>
    <vehicle id="13" depart="4.55">
        <route edges="3/8to3/9 3/9to2/9 2/9to2/8 2/8to2/7 2/7to2/6 2/6to2/5 2/5to1/5 1/5to1/4"/>
    </vehicle>
    <vehicle id="14" depart="4.90">
        <route edges="4/7to4/6 4/6to4/5 4/5to4/4 4/4to4/3 4/3to4/2 4/2to4/1 4/1to4/0 4/0to3/0 3/0to2/0 2/0to2/1"/>
    </vehicle>
    <vehicle id="15" depart="5.25">
        <route edges="1/7to1/8 1/8to0/8 0/8to0/7 0/7to0/6 0/6to0/5 0/5to0/4 0/4to1/4 1/4to1/3 1/3to1/2 1/2to2/2"/>
    </vehicle>
    <vehicle id="16" depart="5.60">
        <route edges="4/9to3/9 3/9to3/8 3/8to3/7 3/7to3/6 3/6to2/6 2/6to1/6 1/6to0/6"/>
    </vehicle>
    <vehicle id="17" depart="5.95">
        <route edges="2/3to1/3 1/3to1/4 1/4to1/5 1/5to2/5 2/5to3/5"/>
    </vehicle>
    <vehicle id="18" depart="6.30">
        <route edges="2/2to1/2 1/2to1/3 1/3to1/4 1/4to1/5 1/5to1/6 1/6to1/7 1/7to2/7 2/7to2/8 2/8to2/9 2/9to3/9"/>
    </vehicle>
    <vehicle id="19" depart="6.65">
        <route edges="2/7to2/6 2/6to2/5 2/5to2/4 2/4to2/3 2/3to2/2 2/2to2/1 2/1to2/0 2/0to3/0 3/0to3/1"/>
    </vehicle>
    <vehicle id="20" depart="7.00">
        <route edges="2/8to3/8 3/8to3/7 3/7to2/7 2/7to1/7 1/7to1/6 1/6to2/6"/>
    </vehicle>
    <vehicle id="21" depart="7.35">
        <route edges="0/4to0/3 0/3to1/3 1/3to1/4 1/4to1/5 1/5to1/6 1/6to1/7 1/7to1/8 1/8to1/9"/>
    </vehicle>
    <vehicle id="22" depart="7.70">
        <route edges="0/3to0/2 0/2to1/2 1/2to2/2 2/2to3/2 3/2to3/1"/>
    </vehicle>
    <vehicle id="23" depart="8.05">
        <route edges="1/7to1/6 1/6to1/5 1/5to1/4 1/4to1/3 1/3to1/2 1/2to1/1 1/1to1/0 1/0to2/0 2/0to2/1"/>
    </vehicle>
    <vehicle id="24" depart="8.40">
        <route edges="left1to0/1 0/1to0/2 0/2to0/3 0/3to1/3 1/3to2/3 2/3to3/3 3/3to4/3 4/3to4/4"/>
    </vehicle>
    <vehicle id="25" depart="8.75">
        <route edges="3/8to3/7 3/7to3/6 3/6to3/5 3/5to3/4 3/4to2/4 2/4to1/4 1/4to0/4 0/4to0/3"/>
    </vehicle>
    <vehicle id="26" depart="9.10">
        <route edges="1/3to1/2 1/2to1/1 1/1to1/0 1/0to2/0 2/0to2/1"/>
    </vehicle>
    <vehicle id="27" depart="9.45">
        <route edges="1/6to1/5 1/5to2/5 2/5to2/6 2/6to2/7 2/7to2/8 2/8to2/9 2/9to1/9 1/9to0/9 0/9to0/8"/>
    </vehicle>
    <vehicle id="28" depart="9.80">
        <route edges="bottom1to1/0 1/0to1/1 1/1to2/1 2/1to2/2"/>
    </vehicle>
    <vehicle id="29" depart="10.15">
        <route edges="left7to0/7 0/7to0/6 0/6to0/5 0/5to0/4 0/4to1/4 1/4to2/4 2/4to3/4 3/4to4/4 4/4to4/5"/>
    </vehicle>
    <vehicle id="30" depart="10.50">
        <route edges="2/1to1/1 1/1to1/2 1/2to1/3 1/3to1/4 1/4to2/4 2/4to3/4 3/4to4/4 4/4to4/3"/>
    </vehicle>
    <vehicle id="31" depart="10.85">
        <route edges="4/4to4/5 4/5to3/5 3/5to3/4 3/4to3/3 3/3to3/2 3/2to3/1"/>
    </vehicle>
    <vehicle id="32" depart="11.20">
        <route edges="1/3to1/4 1/4to0/4 0/4to0/3 0/3to1/3 1/3to2/3 2/3to2/4"/>
    </vehicle>
    <vehicle id="33" depart="11.55">
        <route edges="3/3to4/3 4/3to4/4 4/4to4/5 4/5to4/6 4/6to4/7 4/7to4/8 4/8to3/8 3/8to3/9 3/9to2/9"/>
    </vehicle>
    <vehicle id="34" depart="11.90">
        <route edges="2/2to2/1 2/1to1/1 1/1to1/2 1/2to1/3 1/3to1/4 1/4to1/5 1/5to2/5 2/5to2/6 2/6to2/7 2/7to3/7 3/7to3/6"/>
    </vehicle>
    <vehicle id="35" depart="12.25">
        <route edges="3/7to2/7 2/7to2/6 2/6to3/6 3/6to4/6 4/6to4/7 4/7to4/8 4/8to3/8"/>
    </vehicle>
    <vehicle id="36" depart="12.60">
        <route edges="right2to4/2 4/2to4/3 4/3to4/4 4/4to3/4 3/4to2/4 2/4to1/4 1/4to0/4 0/4toleft4"/>
    </vehicle>
    <vehicle id="37" depart="12.95">
        <route edges="top4to4/9 4/9to4/8 4/8to4/7 4/7to4/6 4/6to4/5 4/5to3/5 3/5to2/5 2/5to1/5"/>
    </vehicle>
    <vehicle id="38" depart="13.30">
        <route edges="1/1to1/2 1/2to1/3 1/3to1/4 1/4to1/5 1/5to1/6 1/6to2/6 2/6to3/6 3/6to3/7 3/7to3/8 3/8to4/8 4/8to4/9"/>
    </vehicle>
    <vehicle id="39" depart="13.65">
        <route edges="bottom4to4/0 4/0to4/1 4/1to4/2 4/2to4/3 4/3to4/4 4/4to4/5 4/5to4/6 4/6to4/7 4/7to4/8 4/8to3/8 3/8to3/7"/>
    </vehicle>
    <vehicle id="40" depart="14.00">
        <route edges="4/7to4/8 4/8to3/8 3/8to3/7 3/7to3/6 3/6to3/5 3/5to3/4 3/4to3/3 3/3to4/3 4/3to4/4"/>
    </vehicle>
    <vehicle id="41" depart="14.35">
        <route edges="left3to0/3 0/3to0/2 0/2to1/2 1/2to2/2 2/2to3/2 3/2to3/3"/>
    </vehicle>
    <vehicle id="42" depart="14.70">
        <route edges="4/0to4/1 4/1to4/2 4/2to4/3 4/3to4/4 4/4to4/5 4/5to4/6 4/6to4/7 4/7to3/7 3/7to3/6"/>
    </vehicle>
    <vehicle id="43" depart="15.05">
        <route edges="0/6to0/7 0/7to1/7 1/7to1/6 1/6to1/5 1/5to1/4 1/4to1/3 1/3to0/3 0/3to0/2 0/2to0/1 0/1to0/0"/>
    </vehicle>
    <vehicle id="44" depart="15.40">
        <route edges="1/9to2/9 2/9to2/8 2/8to2/7 2/7to2/6 2/6to1/6 1/6to0/6 0/6to0/5"/>
    </vehicle>
    <vehicle id="45" depart="15.75">
        <route edges="1/7to2/7 2/7to3/7 3/7to3/6 3/6to2/6 2/6to2/7"/>
    </vehicle>
    <vehicle id="46" depart="16.10">
        <route edges="0/1to1/1 1/1to1/2 1/2to1/3 1/3to1/4 1/4to1/5 1/5to1/6 1/6to2/6 2/6to2/7 2/7to2/8 2/8to3/8 3/8to3/7"/>
    </vehicle>
    <vehicle id="47" depart="16.45">
        <route edges="4/6to4/5 4/5to3/5 3/5to3/6 3/6to3/7 3/7to3/8"/>
    </vehicle>
    <vehicle id="48" depart="16.80">
        <route edges="2/9to2/8 2/8to1/8 1/8to1/9 1/9to0/9 0/9toleft9"/>
    </vehicle>
    <vehicle id="49" depart="17.15">
        <route edges="1/6to1/5 1/5to1/4 1/4to0/4 0/4to0/5"/>
    </vehicle>
    <vehicle id="50" depart="17.50">
        <route edges="3/6to4/6 4/6to4/7 4/7to3/7 3/7to2/7 2/7to1/7 1/7to1/8 1/8to2/8"/>
    </vehicle>
    <vehicle id="51" depart="17.85">
        <route edges="1/7to0/7 0/7to0/6 0/6to0/5 0/5to0/4 0/4to0/3 0/3to0/2 0/2to1/2 1/2to2/2 2/2to3/2"/>
    </vehicle>
    <vehicle id="52" depart="18.20">
        <route edges="3/2to3/3 3/3to3/4 3/4to3/5 3/5to3/6 3/6to3/7 3/7to2/7 2/7to1/7 1/7to1/8 1/8to2/8"/>
    </vehicle>
    <vehicle id="53" depart="18.55">
        <route edges="3/1to3/2 3/2to3/3 3/3to3/4 3/4to3/5 3/5to3/6 3/6to3/7 3/7to3/8 3/8to3/9 3/9to4/9 4/9totop4"/>
    </vehicle>
    <vehicle id="54" depart="18.90">
        <route edges="4/6to3/6 3/6to3/7 3/7to2/7 2/7to2/8 2/8to3/8"/>
    </vehicle>
    <vehicle id="55" depart="19.25">
        <route edges="2/1to1/1 1/1to1/0 1/0to0/0 0/0toleft0"/>
    </vehicle>
    <vehicle id="56" depart="19.60">
        <route edges="4/0to3/0 3/0tobottom3"/>
    </vehicle>
    <vehicle id="57" depart="19.95">
        <route edges="right9to4/9 4/9to4/8 4/8to4/7 4/7to4/6 4/6to4/5 4/5to4/4 4/4to4/3 4/3to4/2 4/2to3/2 3/2to3/1 3/1to3/0 3/0to2/0 2/0to1/0 1/0tobottom1"/>
    </vehicle>
    <vehicle id="58" depart="20.30">
        <route edges="1/2to2/2 2/2to2/3 2/3to2/4 2/4to2/5 2/5to2/6 2/6to2/7 2/7to1/7"/>
    </vehicle>
    <vehicle id="59" depart="20.65">
        <route edges="4/6to3/6 3/6to3/5 3/5to3/4 3/4to3/3 3/3to3/2 3/2to3/1 3/1to2/1 2/1to2/0 2/0to1/0"/>
    </vehicle>
    <vehicle id="60" depart="21.00">
        <route edges="left0to0/0 0/0to0/1 0/1to0/2 0/2to1/2 1/2to2/2 2/2to3/2 3/2to4/2 4/2to4/3"/>
    </vehicle>
    <vehicle id="61" depart="21.35">
        <route edges="2/8to1/8 1/8to1/7 1/7to1/6 1/6to1/5 1/5to1/4 1/4to1/3 1/3to1/2 1/2to1/1 1/1to1/0"/>
    </vehicle>
    <vehicle id="62" depart="21.70">
        <route edges="3/8to3/9 3/9to2/9 2/9to2/8 2/8to1/8 1/8to1/9"/>
    </vehicle>
    <vehicle id="63" depart="22.05">
        <route edges="2/8to2/9 2/9to3/9 3/9to3/8 3/8to3/7 3/7to3/6 3/6to3/5 3/5to3/4 3/4to3/3 3/3to3/2 3/2to2/2"/>
    </vehicle>
    <vehicle id="64" depart="22.40">
        <route edges="2/6to3/6 3/6to3/7 3/7to3/8 3/8to3/9 3/9to2/9 2/9to1/9 1/9to0/9 0/9totop0"/>
    </vehicle>
    <vehicle id="65" depart="22.75">
        <route edges="0/6to0/5 0/5to0/4 0/4to0/3 0/3to0/2 0/2to1/2 1/2to2/2 2/2to3/2 3/2to4/2"/>
    </vehicle>
    <vehicle id="66" depart="23.10">
        <route edges="0/2to0/1 0/1to1/1 1/1to1/2 1/2to1/3 1/3to1/4 1/4to1/5 1/5to2/5 2/5to2/6 2/6to2/7 2/7to2/8 2/8to3/8 3/8to4/8 4/8toright8"/>
    </vehicle>
    <vehicle id="67" depart="23.45">
        <route edges="bottom1to1/0 1/0to1/1 1/1to1/2 1/2to1/3 1/3to1/4 1/4to2/4 2/4to3/4 3/4to3/3"/>
    </vehicle>
    <vehicle id="68" depart="23.80">
        <route edges="2/2to2/3 2/3to2/4 2/4to2/5 2/5to2/6 2/6to2/7 2/7to2/8 2/8to2/9 2/9to3/9 3/9totop3"/>
    </vehicle>
    <vehicle id="69" depart="24.15">
        <route edges="3/1to2/1 2/1to2/2 2/2to2/3 2/3to2/4 2/4to2/5 2/5to3/5 3/5to4/5 4/5to4/6 4/6to3/6"/>
    </vehicle>
    <vehicle id="70" depart="24.50">
        <route edges="3/2to3/3 3/3to3/4 3/4to3/5 3/5to3/6 3/6to2/6 2/6to2/7"/>
    </vehicle>
    <vehicle id="71" depart="24.85">
        <route edges="4/2to3/2 3/2to3/3 3/3to3/4 3/4to3/5 3/5to3/6 3/6to3/7 3/7to2/7 2/7to2/8 2/8to2/9 2/9to1/9 1/9to1/8"/>
    </vehicle>
    <vehicle id="72" depart="25.20">
        <route edges="left1to0/1 0/1to0/2 0/2to0/3 0/3to0/4"/>
    </vehicle>
    <vehicle id="73" depart="25.55">
        <route edges="2/8to2/7 2/7to2/6 2/6to2/5 2/5to2/4 2/4to2/3 2/3to3/3 3/3to4/3 4/3to4/2 4/2to4/1 4/1to3/1"/>
    </vehicle>
    <vehicle id="74" depart="25.90">
        <route edges="2/1to3/1 3/1to3/2 3/2to2/2 2/2to1/2 1/2to1/3 1/3to2/3"/>
    </vehicle>
    <vehicle id="75" depart="26.25">
        <route edges="4/0to3/0 3/0to3/1 3/1to2/1"/>
    </vehicle>
    <vehicle id="76" depart="26.60">
        <route edges="1/8to1/7 1/7to1/6 1/6to1/5 1/5to1/4 1/4to1/3 1/3to2/3 2/3to3/3 3/3to3/2 3/2to3/1 3/1to3/0"/>
    </vehicle>
    <vehicle id="77" depart="26.95">
        <route edges="0/5to1/5 1/5to1/4 1/4to1/3 1/3to1/2 1/2to1/1 1/1to1/0 1/0to2/0 2/0to3/0 3/0to4/0 4/0toright0"/>
    </vehicle>
    <vehicle id="78" depart="27.30">
        <route edges="3/8to4/8 4/8to4/7 4/7to4/6 4/6to4/5 4/5to4/4 4/4to4/3 4/3to3/3 3/3to3/2 3/2to3/1 3/1to2/1 2/1to1/1"/>
    </vehicle>
    <vehicle id="79" depart="27.65">
        <route edges="right3to4/3 4/3to4/2 4/2to4/1 4/1to4/0 4/0to3/0 3/0to2/0 2/0to1/0 1/0to0/0 0/0tobottom0"/>
    </vehicle>
    <vehicle id="80" depart="28.00">
        <route edges="3/8to3/7 3/7to2/7 2/7to2/8 2/8to1/8 1/8to0/8 0/8to0/9"/>
    </vehicle>
    <vehicle id="81" depart="28.35">
        <route edges="2/7to3/7 3/7to3/6 3/6to3/5 3/5to2/5 2/5to1/5 1/5to1/4 1/4to2/4"/>
    </vehicle>
    <vehicle id="82" depart="28.70">
        <route edges="2/4to1/4 1/4to1/3 1/3to1/2 1/2to1/1 1/1to2/1 2/1to3/1 3/1to3/0 3/0to2/0"/>
    </vehicle>
    <vehicle id="83" depart="29.05">
        <route edges="0/4to0/3 0/3to1/3 1/3to1/4 1/4to1/5 1/5to2/5 2/5to2/6 2/6to1/6"/>
    </vehicle>
    <vehicle id="84" depart="29.40">
        <route edges="2/6to2/7 2/7to2/8 2/8to2/9 2/9to3/9 3/9to3/8"/>
    </vehicle>
    <vehicle id="85" depart="29.75">
        <route edges="right5to4/5 4/5to4/4 4/4to3/4 3/4to2/4 2/4to1/4"/>
    </vehicle>
    <vehicle id="86" depart="30.10">
        <route edges="left5to0/5 0/5to0/4 0/4to1/4 1/4to2/4 2/4to3/4 3/4to4/4 4/4to4/3 4/3to3/3"/>
    </vehicle>
    <vehicle id="87" depart="30.45">
        <route edges="1/0to0/0 0/0to0/1 0/1to0/2 0/2to0/3 0/3to0/4 0/4to0/5 0/5to1/5 1/5to1/6 1/6to2/6 2/6to2/7 2/7to1/7"/>
    </vehicle>
    <vehicle id="88" depart="30.80">
        <route edges="1/7to0/7 0/7to0/6 0/6to0/5 0/5to0/4 0/4to0/3 0/3to1/3 1/3to2/3 2/3to3/3 3/3to4/3"/>
    </vehicle>
    <vehicle id="89" depart="31.15">
        <route edges="1/0to1/1 1/1to1/2 1/2to1/3 1/3to1/4 1/4to1/5 1/5to1/6 1/6to1/7 1/7to1/8 1/8to0/8 0/8toleft8"/>
    </vehicle>
    <vehicle id="90" depart="31.50">
        <route edges="4/8to4/7 4/7to4/6 4/6to4/5 4/5to3/5 3/5to2/5 2/5to2/6"/>
    </vehicle>
    <vehicle id="91" depart="31.85">
        <route edges="4/6to4/5"/>
    </vehicle>
    <vehicle id="92" depart="32.20">
        <route edges="2/6to2/7 2/7to2/8 2/8to3/8 3/8to4/8 4/8toright8"/>
    </vehicle>
    <vehicle id="93" depart="32.55">
        <route edges="2/4to2/5 2/5to2/6 2/6to2/7 2/7to2/8"/>
    </vehicle>
    <vehicle id="94" depart="32.90">
        <route edges="4/0to4/1 4/1to4/2 4/2to3/2 3/2to2/2 2/2to2/3 2/3to3/3"/>
    </vehicle>
    <vehicle id="95" depart="33.25">
        <route edges="0/3to0/4 0/4to1/4 1/4to1/3 1/3to1/2 1/2to2/2 2/2to3/2 3/2to4/2 4/2to4/1 4/1to3/1"/>
    </vehicle>
    <vehicle id="96" depart="33.60">
        <route edges="2/5to1/5 1/5to1/4 1/4to1/3 1/3to1/2 1/2to1/1 1/1to1/0 1/0tobottom1"/>
    </vehicle>
    <vehicle id="97" depart="33.95">
        <route edges="1/4to0/4 0/4to0/5 0/5to1/5 1/5to1/6 1/6to0/6"/>
    </vehicle>
    <vehicle id="98" depart="34.30">
        <route edges="3/3to2/3 2/3to1/3 1/3to0/3"/>
    </vehicle>
    <vehicle id="99" depart="34.65">
        <route edges="2/2to2/1 2/1to1/1 1/1to1/2 1/2to1/3 1/3to1/4 1/4to1/5 1/5to0/5 0/5to0/6 0/6to0/7 0/7to0/8 0/8to0/9 0/9to1/9 1/9to1/8"/>
    </vehicle>
    <vehicle id="100" depart="35.00">
        <route edges="0/6to0/5 0/5to1/5 1/5to1/6 1/6to2/6 2/6to3/6"/>
    </vehicle>
    <vehicle id="101" depart="35.35">
        <route edges="0/2to0/3 0/3to1/3 1/3to1/2 1/2to2/2 2/2to3/2 3/2to3/3 3/3to2/3"/>
    </vehicle>
    <vehicle id="102" depart="35.70">
        <route edges="1/4to2/4 2/4to2/3 2/3to1/3 1/3to0/3 0/3to0/4 0/4to0/5"/>
    </vehicle>
    <vehicle id="103" depart="36.05">
        <route edges="0/2to0/1 0/1to1/1 1/1to1/2 1/2to1/3 1/3to1/4 1/4to1/5 1/5to0/5 0/5to0/6 0/6to0/7 0/7to0/8 0/8to0/9 0/9to1/9 1/9to1/8"/>
    </vehicle>
    <vehicle id="104" depart="36.40">
        <route edges="2/2to3/2 3/2to3/1 3/1to3/0 3/0to4/0"/>
    </vehicle>
    <vehicle id="105" depart="36.75">
        <route edges="0/4to0/3 0/3to1/3 1/3to2/3"/>
    </vehicle>
    <vehicle id="106" depart="37.10">
        <route edges="2/4to2/5 2/5to3/5 3/5to3/4 3/4to3/3 3/3to3/2 3/2to3/1 3/1to4/1 4/1toright1"/>
    </vehicle>
    <vehicle id="107" depart="37.45">
        <route edges="3/5to4/5 4/5to4/6 4/6to4/7 4/7to4/8 4/8to3/8 3/8to3/7"/>
    </vehicle>
    <vehicle id="108" depart="37.80">
        <route edges="top0to0/9 0/9to0/8 0/8to0/7 0/7to1/7 1/7to2/7"/>
    </vehicle>
    <vehicle id="109" depart="38.15">
        <route edges="left5to0/5 0/5to0/6 0/6to1/6 1/6to2/6 2/6to3/6 3/6to3/7 3/7to2/7"/>
    </vehicle>
    <vehicle id="110" depart="38.50">
        <route edges="0/3to0/2 0/2to0/1 0/1to1/1 1/1to2/1 2/1to3/1 3/1to3/2"/>
    </vehicle>
    <vehicle id="111" depart="38.85">
        <route edges="0/1to0/0 0/0to1/0 1/0to1/1 1/1to1/2 1/2to2/2 2/2to2/3 2/3to1/3"/>
    </vehicle>
    <vehicle id="112" depart="39.20">
        <route edges="right5to4/5 4/5to4/4 4/4to4/3 4/3to3/3 3/3to2/3 2/3to1/3 1/3to1/4"/>
    </vehicle>
    <vehicle id="113" depart="39.55">
        <route edges="2/4to1/4 1/4to1/5 1/5to1/6 1/6to2/6"/>
    </vehicle>
    <vehicle id="114" depart="39.90">
        <route edges="left1to0/1 0/1to0/2 0/2to0/3 0/3to0/4 0/4to0/5 0/5to0/6 0/6to1/6 1/6to1/5"/>
    </vehicle>
    <vehicle id="115" depart="40.25">
        <route edges="1/7to1/6 1/6to1/5 1/5to2/5 2/5to3/5 3/5to3/6"/>
    </vehicle>
    <vehicle id="116" depart="40.60">
        <route edges="4/8to4/7 4/7to4/6 4/6to4/5 4/5to3/5 3/5to2/5 2/5to1/5 1/5to0/5 0/5to0/4 0/4to1/4"/>
    </vehicle>
    <vehicle id="117" depart="40.95">
        <route edges="3/6to2/6 2/6to2/5 2/5to2/4 2/4to2/3 2/3to2/2 2/2to1/2 1/2to0/2"/>
    </vehicle>
    <vehicle id="118" depart="41.30">
        <route edges="0/7to1/7 1/7to1/6 1/6to1/5 1/5to0/5 0/5to0/4"/>
    </vehicle>
    <vehicle id="119" depart="41.65">
        <route edges="0/9to0/8 0/8to0/7 0/7to0/6 0/6to0/5 0/5to0/4 0/4to0/3 0/3to0/2 0/2to0/1 0/1to1/1 1/1to1/0 1/0to2/0 2/0to3/0 3/0to3/1"/>
    </vehicle>
    <vehicle id="120" depart="42.00">
        <route edges="1/9to0/9 0/9to0/8 0/8to1/8 1/8to2/8 2/8to3/8 3/8to4/8 4/8to4/7 4/7to3/7"/>
    </vehicle>
    <vehicle id="121" depart="42.35">
        <route edges="0/6to0/7 0/7to1/7 1/7to1/6 1/6to1/5 1/5to1/4 1/4to1/3 1/3to1/2 1/2to1/1 1/1to1/0 1/0to2/0 2/0to2/1"/>
    </vehicle>
    <vehicle id="122" depart="42.70">
        <route edges="0/3to0/4 0/4to1/4 1/4to1/3 1/3to1/2 1/2to1/1 1/1to0/1 0/1to0/2"/>
    </vehicle>
    <vehicle id="123" depart="43.05">
        <route edges="3/5to2/5 2/5to1/5 1/5to0/5 0/5to0/6 0/6to1/6"/>
    </vehicle>
    <vehicle id="124" depart="43.40">
        <route edges="3/8to2/8 2/8to2/7 2/7to2/6 2/6to2/5 2/5to2/4 2/4to2/3 2/3to1/3 1/3to1/2 1/2to1/1 1/1to1/0"/>
    </vehicle>
    <vehicle id="125" depart="43.75">
        <route edges="0/7to1/7 1/7to1/6 1/6to1/5 1/5to1/4 1/4to1/3 1/3to1/2 1/2to2/2 2/2to3/2 3/2to3/1 3/1to2/1"/>
    </vehicle>
    <vehicle id="126" depart="44.10">
        <route edges="right2to4/2 4/2to3/2 3/2to3/1 3/1to4/1 4/1to4/2"/>
    </vehicle>
    <vehicle id="127" depart="44.45">
        <route edges="2/4to2/3 2/3to2/2 2/2to2/1 2/1to2/0 2/0tobottom2"/>
    </vehicle>
    <vehicle id="128" depart="44.80">
        <route edges="4/3to4/2 4/2to3/2 3/2to3/3 3/3to3/4 3/4to3/5 3/5to2/5 2/5to2/6 2/6to3/6"/>
    </vehicle>
    <vehicle id="129" depart="45.15">
        <route edges="0/1to0/2 0/2to1/2 1/2to2/2 2/2to2/3 2/3to1/3"/>
    </vehicle>
    <vehicle id="130" depart="45.50">
        <route edges="1/5to1/4 1/4to0/4 0/4to0/5 0/5to0/6 0/6to0/7 0/7to0/8 0/8to1/8 1/8to1/9 1/9to2/9"/>
    </vehicle>
    <vehicle id="131" depart="45.85">
        <route edges="2/7to2/8 2/8to2/9 2/9to1/9 1/9to1/8"/>
    </vehicle>
    <vehicle id="132" depart="46.20">
        <route edges="0/6to0/7 0/7to1/7 1/7to1/6 1/6to1/5 1/5to1/4 1/4to1/3 1/3to2/3 2/3to2/2 2/2to2/1 2/1to3/1 3/1to4/1 4/1to4/2"/>
    </vehicle>
    <vehicle id="133" depart="46.55">
        <route edges="3/0to4/0 4/0to4/1 4/1to4/2 4/2to4/3 4/3toright3"/>
    </vehicle>
    <vehicle id="134" depart="46.90">
        <route edges="4/4to4/3 4/3to4/2 4/2to3/2"/>
    </vehicle>
    <vehicle id="135" depart="47.25">
        <route edges="4/9to3/9 3/9to3/8 3/8to3/7 3/7to3/6 3/6to3/5 3/5to3/4 3/4to2/4 2/4to1/4 1/4to1/3 1/3to2/3"/>
    </vehicle>
    <vehicle id="136" depart="47.60">
        <route edges="0/9to0/8 0/8to0/7 0/7to0/6 0/6to0/5 0/5to0/4 0/4to0/3 0/3to0/2 0/2to0/1 0/1to1/1 1/1to2/1 2/1to2/2"/>
    </vehicle>
    <vehicle id="137" depart="47.95">
        <route edges="1/0to1/1 1/1to1/2 1/2to1/3 1/3to1/4 1/4to2/4 2/4to3/4 3/4to3/5 3/5to2/5"/>
    </vehicle>
    <vehicle id="138" depart="48.30">
        <route edges="3/3to3/4 3/4to2/4 2/4to2/3 2/3to2/2 2/2to2/1 2/1to3/1 3/1to4/1 4/1to4/2"/>
    </vehicle>
    <vehicle id="139" depart="48.65">
        <route edges="right6to4/6 4/6to4/5 4/5to4/4 4/4to4/3 4/3to4/2 4/2to4/1 4/1to4/0 4/0to3/0 3/0to3/1"/>
    </vehicle>
    <vehicle id="140" depart="49.00">
        <route edges="2/5to3/5 3/5to3/6 3/6to3/7"/>
    </vehicle>
    <vehicle id="141" depart="49.35">
        <route edges="1/5to1/4 1/4to2/4 2/4to2/5 2/5to1/5"/>
    </vehicle>
    <vehicle id="142" depart="49.70">
        <route edges="left9to0/9 0/9to0/8 0/8to0/7 0/7to0/6 0/6to0/5 0/5to0/4 0/4to0/3 0/3to0/2 0/2to1/2 1/2to2/2 2/2to3/2 3/2to4/2 4/2toright2"/>
    </vehicle>
    <vehicle id="143" depart="50.05">
        <route edges="4/2to4/1 4/1to4/0 4/0to3/0 3/0to2/0 2/0to1/0"/>
    </vehicle>
    <vehicle id="144" depart="50.40">
        <route edges="2/9to3/9 3/9to3/8 3/8to2/8 2/8to2/7"/>
    </vehicle>
    <vehicle id="145" depart="50.75">
        <route edges="2/1to3/1 3/1to3/0 3/0to2/0 2/0to2/1 2/1to1/1"/>
    </vehicle>
    <vehicle id="146" depart="51.10">
        <route edges="0/7to0/8 0/8to1/8 1/8to1/7 1/7to1/6 1/6to1/5 1/5to1/4 1/4to2/4 2/4to2/3 2/3to3/3 3/3to4/3 4/3to4/4"/>
    </vehicle>
    <vehicle id="147" depart="51.45">
        <route edges="1/1to0/1 0/1to0/2 0/2to1/2 1/2to2/2 2/2to3/2 3/2to3/1"/>
    </vehicle>
    <vehicle id="148" depart="51.80">
        <route edges="4/1to4/0 4/0to3/0 3/0to3/1 3/1to3/2 3/2to3/3 3/3to2/3 2/3to1/3 1/3to1/4 1/4to2/4"/>
    </vehicle>
    <vehicle id="149" depart="52.15">
        <route edges="1/2to2/2 2/2to2/3 2/3to3/3 3/3to4/3"/>
    </vehicle>
    <vehicle id="150" depart="52.50">
        <route edges="2/0to1/0 1/0to0/0 0/0to0/1 0/1to1/1 1/1to1/0"/>
    </vehicle>
    <vehicle id="151" depart="52.85">
        <route edges="1/9to2/9 2/9to2/8 2/8to2/7 2/7to1/7 1/7to0/7 0/7to0/8 0/8to1/8"/>
    </vehicle>
    <vehicle id="152" depart="53.20">
        <route edges="1/3to1/2 1/2to2/2 2/2to2/3 2/3to2/4 2/4to2/5 2/5to2/6 2/6to2/7 2/7to2/8 2/8to2/9"/>
    </vehicle>
    <vehicle id="153" depart="53.55">
        <route edges="4/3to4/2 4/2to3/2 3/2to3/3 3/3to3/4 3/4to3/5 3/5to3/6 3/6to2/6 2/6to2/7 2/7to1/7 1/7to1/8"/>
    </vehicle>
    <vehicle id="154" depart="53.90">
        <route edges="0/6to0/7 0/7to1/7 1/7to1/6 1/6to1/5 1/5to1/4 1/4to1/3 1/3to2/3 2/3to2/2 2/2to3/2 3/2to4/2 4/2to4/1"/>
    </vehicle>
    <vehicle id="155" depart="54.25">
        <route edges="right4to4/4 4/4to4/3 4/3to3/3 3/3to3/2"/>
    </vehicle>
    <vehicle id="156" depart="54.60">
        <route edges="2/8to1/8 1/8to1/7 1/7to2/7 2/7to3/7 3/7to4/7"/>
    </vehicle>
    <vehicle id="157" depart="54.95">
        <route edges="1/0to1/1 1/1to1/2 1/2to1/3 1/3to1/4 1/4to1/5 1/5to2/5 2/5to2/4"/>
    </vehicle>
    <vehicle id="158" depart="55.30">
        <route edges="1/5to2/5 2/5to2/4 2/4to2/3 2/3to3/3"/>
    </vehicle>
    <vehicle id="159" depart="55.65">
        <route edges="3/3to3/4 3/4to2/4 2/4to2/3 2/3to2/2 2/2to2/1 2/1to3/1 3/1to4/1 4/1to4/2"/>
    </vehicle>
    <vehicle id="160" depart="56.00">
        <route edges="1/5to1/6 1/6to0/6 0/6toleft6"/>
    </vehicle>
    <vehicle id="161" depart="56.35">
        <route edges="4/6to4/5 4/5to3/5 3/5to3/6 3/6to3/7 3/7to4/7 4/7to4/6"/>
    </vehicle>
    <vehicle id="162" depart="56.70">
        <route edges="4/0to3/0 3/0to2/0 2/0to1/0 1/0to1/1"/>
    </vehicle>
    <vehicle id="163" depart="57.05">
        <route edges="4/7to4/6 4/6to4/5 4/5to4/4 4/4to4/3 4/3to3/3 3/3to2/3"/>
    </vehicle>
    <vehicle id="164" depart="57.40">
        <route edges="1/7to0/7 0/7to0/6 0/6to0/5 0/5to0/4 0/4to1/4 1/4to2/4 2/4to3/4 3/4to4/4 4/4to4/3 4/3to3/3"/>
    </vehicle>
    <vehicle id="165" depart="57.75">
        <route edges="1/8to0/8 0/8to0/7 0/7to0/6 0/6to1/6 1/6to1/5 1/5to0/5"/>
    </vehicle>
    <vehicle id="166" depart="58.10">
        <route edges="3/1to3/2 3/2to3/3 3/3to3/4 3/4to3/5 3/5to3/6 3/6to3/7 3/7to3/8 3/8to3/9 3/9to2/9 2/9to1/9 1/9to0/9"/>
    </vehicle>
    <vehicle id="167" depart="58.45">
        <route edges="3/8to2/8 2/8to2/7 2/7to2/6 2/6to2/5 2/5to1/5 1/5to1/4 1/4to2/4"/>
    </vehicle>
    <vehicle id="168" depart="58.80">
        <route edges="3/4to3/5 3/5to2/5 2/5to2/4 2/4to2/3 2/3to2/2 2/2to2/1 2/1to3/1"/>
    </vehicle>
    <vehicle id="169" depart="59.15">
        <route edges="4/5to3/5 3/5to3/4 3/4to3/3 3/3to3/2 3/2to2/2 2/2to1/2 1/2to1/3"/>
    </vehicle>
    <vehicle id="170" depart="59.50">
        <route edges="0/4to1/4 1/4to1/5 1/5to1/6 1/6to1/7 1/7to1/8"/>
    </vehicle>
    <vehicle id="171" depart="59.85">
        <route edges="3/9to4/9 4/9to4/8 4/8to4/7 4/7to4/6 4/6to4/5 4/5to4/4 4/4to3/4 3/4to3/3 3/3to3/2 3/2to3/1 3/1to3/0 3/0to2/0 2/0to1/0 1/0to1/1"/>
    </vehicle>
    <vehicle id="172" depart="60.20">
        <route edges="1/2to0/2 0/2to0/3 0/3to0/4 0/4to0/5 0/5to0/6 0/6to0/7 0/7to0/8 0/8to1/8"/>
    </vehicle>
    <vehicle id="173" depart="60.55">
        <route edges="right4to4/4 4/4to4/5 4/5to4/6 4/6to4/7 4/7to3/7"/>
    </vehicle>
    <vehicle id="174" depart="60.90">
        <route edges="1/1to0/1 0/1to0/2 0/2to0/3 0/3to0/4 0/4to0/5 0/5to0/6 0/6to1/6 1/6to2/6 2/6to3/6"/>
    </vehicle>
    <vehicle id="175" depart="61.25">
        <route edges="2/2to1/2 1/2to1/3 1/3to0/3 0/3to0/2"/>
    </vehicle>
    <vehicle id="176" depart="61.60">
        <route edges="3/8to4/8 4/8to4/7 4/7to4/6 4/6to3/6 3/6to3/7 3/7to4/7 4/7to4/8 4/8to3/8"/>
    </vehicle>
    <vehicle id="177" depart="61.95">
        <route edges="3/4to4/4 4/4to4/3 4/3to3/3 3/3to3/4 3/4to3/5"/>
    </vehicle>
    <vehicle id="178" depart="62.30">
        <route edges="2/8to3/8 3/8to3/7 3/7to3/6 3/6to2/6 2/6to2/5"/>
    </vehicle>
    <vehicle id="179" depart="62.65">
        <route edges="4/9to4/8 4/8to4/7 4/7to4/6 4/6to4/5 4/5toright5"/>
    </vehicle>
    <vehicle id="180" depart="63.00">
        <route edges="left2to0/2 0/2to0/3 0/3to0/4 0/4to0/5 0/5to0/6 0/6to0/7 0/7to0/8 0/8to0/9 0/9totop0"/>
    </vehicle>
    <vehicle id="181" depart="63.35">
        <route edges="2/3to2/4 2/4to3/4 3/4to3/3 3/3to3/2 3/2to3/1 3/1to4/1 4/1to4/2"/>
    </vehicle>
    <vehicle id="182" depart="63.70">
        <route edges="4/2to4/1 4/1to3/1 3/1to3/0 3/0to4/0"/>
    </vehicle>
    <vehicle id="183" depart="64.05">
        <route edges="3/5to2/5 2/5to2/4 2/4to2/3 2/3to3/3 3/3to3/2 3/2to2/2"/>
    </vehicle>
    <vehicle id="184" depart="64.40">
        <route edges="2/0to1/0 1/0to1/1 1/1to1/2 1/2to1/3 1/3to1/4 1/4to1/5 1/5to1/6 1/6to0/6"/>
    </vehicle>
    <vehicle id="185" depart="64.75">
        <route edges="4/5to3/5 3/5to2/5 2/5to1/5 1/5to1/6 1/6to1/7"/>
    </vehicle>
    <vehicle id="186" depart="65.10">
        <route edges="0/2to1/2 1/2to1/3 1/3to1/4 1/4to1/5 1/5to1/6 1/6to1/7 1/7to1/8 1/8to1/9"/>
    </vehicle>
    <vehicle id="187" depart="65.45">
        <route edges="3/6to2/6 2/6to2/7 2/7to3/7 3/7to3/6"/>
    </vehicle>
    <vehicle id="188" depart="65.80">
        <route edges="0/3to1/3 1/3to1/4 1/4to1/5 1/5to1/6 1/6to1/7 1/7to1/8 1/8to2/8 2/8to2/9 2/9to3/9 3/9to4/9"/>
    </vehicle>
    <vehicle id="189" depart="66.15">
        <route edges="3/8to3/9 3/9to2/9 2/9to2/8 2/8to2/7 2/7to2/6 2/6to2/5 2/5to2/4 2/4to2/3 2/3to2/2 2/2to2/1 2/1to3/1"/>
    </vehicle>
    <vehicle id="190" depart="66.50">
        <route edges="2/4to3/4 3/4to3/3 3/3to3/2 3/2to2/2 2/2to2/3 2/3to3/3"/>
    </vehicle>
    <vehicle id="191" depart="66.85">
        <route edges="3/2to2/2 2/2to2/3 2/3to2/4 2/4to2/5 2/5to2/6 2/6to2/7 2/7to3/7 3/7to4/7"/>
    </vehicle>
    <vehicle id="192" depart="67.20">
        <route edges="1/4to2/4 2/4to2/3 2/3to2/2 2/2to1/2 1/2to1/1"/>
    </vehicle>
    <vehicle id="193" depart="67.55">
        <route edges="left4to0/4 0/4to0/5 0/5to0/6 0/6to0/7 0/7to0/8 0/8to1/8 1/8to2/8 2/8to2/9 2/9to3/9 3/9to3/8"/>
    </vehicle>
    <vehicle id="194" depart="67.90">
        <route edges="4/4to4/3 4/3to3/3 3/3to2/3 2/3to1/3 1/3to0/3 0/3to0/2"/>
    </vehicle>
    <vehicle id="195" depart="68.25">
        <route edges="1/0to0/0 0/0to0/1 0/1to0/2 0/2to1/2 1/2to2/2 2/2to2/1 2/1to1/1"/>
    </vehicle>
    <vehicle id="196" depart="68.60">
        <route edges="2/1to1/1 1/1to1/2 1/2to2/2 2/2to3/2 3/2to3/1 3/1to3/0 3/0to2/0"/>
    </vehicle>
    <vehicle id="197" depart="68.95">
        <route edges="3/9to2/9 2/9to2/8"/>
    </vehicle>
    <vehicle id="198" depart="69.30">
        <route edges="0/1to1/1 1/1to1/2 1/2to1/3 1/3to1/4 1/4to1/5 1/5to1/6 1/6to2/6 2/6to2/7 2/7to3/7 3/7to3/6"/>
    </vehicle>
    <vehicle id="199" depart="69.65">
        <route edges="4/8to4/9 4/9to3/9 3/9to3/8 3/8to3/7 3/7to3/6 3/6to3/5 3/5to3/4 3/4to3/3 3/3to3/2 3/2to3/1 3/1to2/1"/>
    </vehicle>
    <vehicle id="200" depart="70.00">
        <route edges="2/7to3/7 3/7to3/8 3/8to4/8"/>
    </vehicle>
    <vehicle id="201" depart="70.35">
        <route edges="1/1to0/1 0/1to0/2 0/2to0/3 0/3to0/4 0/4to0/5 0/5to0/6 0/6to1/6"/>
    </vehicle>
    <vehicle id="202" depart="70.70">