<?xml version="1.0"?>
<!-- generated on 2017-08-04 12:29:43.991024 by $Id: randomTrips.py 23999 2017-04-21 09:04:47Z behrisch $
  options: -n grid.net.xml -o grid-0p35/grid-0p35.trips.xml -r grid-0p35/grid-0p35.rou.xml -e 100 -p 0.35
-->
<routes xmlns:xsi="http://www.w3.org/2001/XMLSchema-instance" xsi:noNamespaceSchemaLocation="http://sumo.dlr.de/xsd/routes_file.xsd">
    <trip id="0" depart="0.00" from="2/7to1/7" to="3/7to2/7"/>
    <trip id="1" depart="0.35" from="left5to0/5" to="3/3to4/3"/>
    <trip id="2" depart="0.70" from="0/1to0/0" to="2/3to2/4"/>
    <trip id="3" depart="1.05" from="top0to0/9" to="4/8to4/9"/>
    <trip id="4" depart="1.40" from="4/7to4/8" to="4/7to4/6"/>
    <trip id="5" depart="1.75" from="4/9to3/9" to="3/6to4/6"/>
    <trip id="6" depart="2.10" from="3/1to2/1" to="4/9toright9"/>
    <trip id="7" depart="2.45" from="3/2to3/3" to="3/7to3/8"/>
    <trip id="8" depart="2.80" from="2/2to2/1" to="4/3to4/2"/>
    <trip id="9" depart="3.15" from="2/1to1/1" to="1/9to1/8"/>
    <trip id="10" depart="3.50" from="2/2to2/1" to="2/1to2/2"/>
    <trip id="11" depart="3.85" from="4/1to4/2" to="2/4to1/4"/>
    <trip id="12" depart="4.20" from="2/9to3/9" to="0/0to0/1"/>
    <trip id="13" depart="4.55" from="3/8to3/9" to="1/5to1/4"/>
    <trip id="14" depart="4.90" from="4/7to4/6" to="2/0to2/1"/>
    <trip id="15" depart="5.25" from="1/7to1/8" to="1/2to2/2"/>
    <trip id="16" depart="5.60" from="4/9to3/9" to="1/6to0/6"/>
    <trip id="17" depart="5.95" from="2/3to1/3" to="2/5to3/5"/>
    <trip id="18" depart="6.30" from="2/2to1/2" to="2/9to3/9"/>
    <trip id="19" depart="6.65" from="2/7to2/6" to="3/0to3/1"/>
    <trip id="20" depart="7.00" from="2/8to3/8" to="1/6to2/6"/>
    <trip id="21" depart="7.35" from="0/4to0/3" to="1/8to1/9"/>
    <trip id="22" depart="7.70" from="0/3to0/2" to="3/2to3/1"/>
    <trip id="23" depart="8.05" from="1/7to1/6" to="2/0to2/1"/>
    <trip id="24" depart="8.40" from="left1to0/1" to="4/3to4/4"/>
    <trip id="25" depart="8.75" from="3/8to3/7" to="0/4to0/3"/>
    <trip id="26" depart="9.10" from="1/3to1/2" to="2/0to2/1"/>
    <trip id="27" depart="9.45" from="1/6to1/5" to="0/9to0/8"/>
    <trip id="28" depart="9.80" from="bottom1to1/0" to="2/1to2/2"/>
    <trip id="29" depart="10.15" from="left7to0/7" to="4/4to4/5"/>
    <trip id="30" depart="10.50" from="2/1to1/1" to="4/4to4/3"/>
    <trip id="31" depart="10.85" from="4/4to4/5" to="3/2to3/1"/>
    <trip id="32" depart="11.20" from="1/3to1/4" to="2/3to2/4"/>
    <trip id="33" depart="11.55" from="3/3to4/3" to="3/9to2/9"/>
    <trip id="34" depart="11.90" from="2/2to2/1" to="3/7to3/6"/>
    <trip id="35" depart="12.25" from="3/7to2/7" to="4/8to3/8"/>
    <trip id="36" depart="12.60" from="right2to4/2" to="0/4toleft4"/>
    <trip id="37" depart="12.95" from="top4to4/9" to="2/5to1/5"/>
    <trip id="38" depart="13.30" from="1/1to1/2" to="4/8to4/9"/>
    <trip id="39" depart="13.65" from="bottom4to4/0" to="3/8to3/7"/>
    <trip id="40" depart="14.00" from="4/7to4/8" to="4/3to4/4"/>
    <trip id="41" depart="14.35" from="left3to0/3" to="3/2to3/3"/>
    <trip id="42" depart="14.70" from="4/0to4/1" to="3/7to3/6"/>
    <trip id="43" depart="15.05" from="0/6to0/7" to="0/1to0/0"/>
    <trip id="44" depart="15.40" from="1/9to2/9" to="0/6to0/5"/>
    <trip id="45" depart="15.75" from="1/7to2/7" to="2/6to2/7"/>
    <trip id="46" depart="16.10" from="0/1to1/1" to="3/8to3/7"/>
    <trip id="47" depart="16.45" from="4/6to4/5" to="3/7to3/8"/>
    <trip id="48" depart="16.80" from="2/9to2/8" to="0/9toleft9"/>
    <trip id="49" depart="17.15" from="1/6to1/5" to="0/4to0/5"/>
    <trip id="50" depart="17.50" from="3/6to4/6" to="1/8to2/8"/>
    <trip id="51" depart="17.85" from="1/7to0/7" to="2/2to3/2"/>
    <trip id="52" depart="18.20" from="3/2to3/3" to="1/8to2/8"/>
    <trip id="53" depart="18.55" from="3/1to3/2" to="4/9totop4"/>
    <trip id="54" depart="18.90" from="4/6to3/6" to="2/8to3/8"/>
    <trip id="55" depart="19.25" from="2/1to1/1" to="0/0toleft0"/>
    <trip id="56" depart="19.60" from="4/0to3/0" to="3/0tobottom3"/>
    <trip id="57" depart="19.95" from="right9to4/9" to="1/0tobottom1"/>
    <trip id="58" depart="20.30" from="1/2to2/2" to="2/7to1/7"/>
    <trip id="59" depart="20.65" from="4/6to3/6" to="2/0to1/0"/>
    <trip id="60" depart="21.00" from="left0to0/0" to="4/2to4/3"/>
    <trip id="61" depart="21.35" from="2/8to1/8" to="1/1to1/0"/>
    <trip id="62" depart="21.70" from="3/8to3/9" to="1/8to1/9"/>
    <trip id="63" depart="22.05" from="2/8to2/9" to="3/2to2/2"/>
    <trip id="64" depart="22.40" from="2/6to3/6" to="0/9totop0"/>
    <trip id="65" depart="22.75" from="0/6to0/5" to="3/2to4/2"/>
    <trip id="66" depart="23.10" from="0/2to0/1" to="4/8toright8"/>
    <trip id="67" depart="23.45" from="bottom1to1/0" to="3/4to3/3"/>
    <trip id="68" depart="23.80" from="2/2to2/3" to="3/9totop3"/>
    <trip id="69" depart="24.15" from="3/1to2/1" to="4/6to3/6"/>
    <trip id="70" depart="24.50" from="3/2to3/3" to="2/6to2/7"/>
    <trip id="71" depart="24.85" from="4/2to3/2" to="1/9to1/8"/>
    <trip id="72" depart="25.20" from="left1to0/1" to="0/3to0/4"/>
    <trip id="73" depart="25.55" from="2/8to2/7" to="4/1to3/1"/>
    <trip id="74" depart="25.90" from="2/1to3/1" to="1/3to2/3"/>
    <trip id="75" depart="26.25" from="4/0to3/0" to="3/1to2/1"/>
    <trip id="76" depart="26.60" from="1/8to1/7" to="3/1to3/0"/>
    <trip id="77" depart="26.95" from="0/5to1/5" to="4/0toright0"/>
    <trip id="78" depart="27.30" from="3/8to4/8" to="2/1to1/1"/>
    <trip id="79" depart="27.65" from="right3to4/3" to="0/0tobottom0"/>
    <trip id="80" depart="28.00" from="3/8to3/7" to="0/8to0/9"/>
    <trip id="81" depart="28.35" from="2/7to3/7" to="1/4to2/4"/>
    <trip id="82" depart="28.70" from="2/4to1/4" to="3/0to2/0"/>
    <trip id="83" depart="29.05" from="0/4to0/3" to="2/6to1/6"/>
    <trip id="84" depart="29.40" from="2/6to2/7" to="3/9to3/8"/>
    <trip id="85" depart="29.75" from="right5to4/5" to="2/4to1/4"/>
    <trip id="86" depart="30.10" from="left5to0/5" to="4/3to3/3"/>
    <trip id="87" depart="30.45" from="1/0to0/0" to="2/7to1/7"/>
    <trip id="88" depart="30.80" from="1/7to0/7" to="3/3to4/3"/>
    <trip id="89" depart="31.15" from="1/0to1/1" to="0/8toleft8"/>
    <trip id="90" depart="31.50" from="4/8to4/7" to="2/5to2/6"/>
    <trip id="91" depart="31.85" from="4/6to4/5" to="4/6to4/5"/>
    <trip id="92" depart="32.20" from="2/6to2/7" to="4/8toright8"/>
    <trip id="93" depart="32.55" from="2/4to2/5" to="2/7to2/8"/>
    <trip id="94" depart="32.90" from="4/0to4/1" to="2/3to3/3"/>
    <trip id="95" depart="33.25" from="0/3to0/4" to="4/1to3/1"/>
    <trip id="96" depart="33.60" from="2/5to1/5" to="1/0tobottom1"/>
    <trip id="97" depart="33.95" from="1/4to0/4" to="1/6to0/6"/>
    <trip id="98" depart="34.30" from="3/3to2/3" to="1/3to0/3"/>
    <trip id="99" depart="34.65" from="2/2to2/1" to="1/9to1/8"/>
    <trip id="100" depart="35.00" from="0/6to0/5" to="2/6to3/6"/>
    <trip id="101" depart="35.35" from="0/2to0/3" to="3/3to2/3"/>
    <trip id="102" depart="35.70" from="1/4to2/4" to="0/4to0/5"/>
    <trip id="103" depart="36.05" from="0/2to0/1" to="1/9to1/8"/>
    <trip id="104" depart="36.40" from="2/2to3/2" to="3/0to4/0"/>
    <trip id="105" depart="36.75" from="0/4to0/3" to="1/3to2/3"/>
    <trip id="106" depart="37.10" from="2/4to2/5" to="4/1toright1"/>
    <trip id="107" depart="37.45" from="3/5to4/5" to="3/8to3/7"/>
    <trip id="108" depart="37.80" from="top0to0/9" to="1/7to2/7"/>
    <trip id="109" depart="38.15" from="left5to0/5" to="3/7to2/7"/>
    <trip id="110" depart="38.50" from="0/3to0/2" to="3/1to3/2"/>
    <trip id="111" depart="38.85" from="0/1to0/0" to="2/3to1/3"/>
    <trip id="112" depart="39.20" from="right5to4/5" to="1/3to1/4"/>
    <trip id="113" depart="39.55" from="2/4to1/4" to="1/6to2/6"/>
    <trip id="114" depart="39.90" from="left1to0/1" to="1/6to1/5"/>
    <trip id="115" depart="40.25" from="1/7to1/6" to="3/5to3/6"/>
    <trip id="116" depart="40.60" from="4/8to4/7" to="0/4to1/4"/>
    <trip id="117" depart="40.95" from="3/6to2/6" to="1/2to0/2"/>
    <trip id="118" depart="41.30" from="0/7to1/7" to="0/5to0/4"/>
    <trip id="119" depart="41.65" from="0/9to0/8" to="3/0to3/1"/>
    <trip id="120" depart="42.00" from="1/9to0/9" to="4/7to3/7"/>
    <trip id="121" depart="42.35" from="0/6to0/7" to="2/0to2/1"/>
    <trip id="122" depart="42.70" from="0/3to0/4" to="0/1to0/2"/>
    <trip id="123" depart="43.05" from="3/5to2/5" to="0/6to1/6"/>
    <trip id="124" depart="43.40" from="3/8to2/8" to="1/1to1/0"/>
    <trip id="125" depart="43.75" from="0/7to1/7" to="3/1to2/1"/>
    <trip id="126" depart="44.10" from="right2to4/2" to="4/1to4/2"/>
    <trip id="127" depart="44.45" from="2/4to2/3" to="2/0tobottom2"/>
    <trip id="128" depart="44.80" from="4/3to4/2" to="2/6to3/6"/>
    <trip id="129" depart="45.15" from="0/1to0/2" to="2/3to1/3"/>
    <trip id="130" depart="45.50" from="1/5to1/4" to="1/9to2/9"/>
    <trip id="131" depart="45.85" from="2/7to2/8" to="1/9to1/8"/>
    <trip id="132" depart="46.20" from="0/6to0/7" to="4/1to4/2"/>
    <trip id="133" depart="46.55" from="3/0to4/0" to="4/3toright3"/>
    <trip id="134" depart="46.90" from="4/4to4/3" to="4/2to3/2"/>
    <trip id="135" depart="47.25" from="4/9to3/9" to="1/3to2/3"/>
    <trip id="136" depart="47.60" from="0/9to0/8" to="2/1to2/2"/>
    <trip id="137" depart="47.95" from="1/0to1/1" to="3/5to2/5"/>
    <trip id="138" depart="48.30" from="3/3to3/4" to="4/1to4/2"/>
    <trip id="139" depart="48.65" from="right6to4/6" to="3/0to3/1"/>
    <trip id="140" depart="49.00" from="2/5to3/5" to="3/6to3/7"/>
    <trip id="141" depart="49.35" from="1/5to1/4" to="2/5to1/5"/>
    <trip id="142" depart="49.70" from="left9to0/9" to="4/2toright2"/>
    <trip id="143" depart="50.05" from="4/2to4/1" to="2/0to1/0"/>
    <trip id="144" depart="50.40" from="2/9to3/9" to="2/8to2/7"/>
    <trip id="145" depart="50.75" from="2/1to3/1" to="2/1to1/1"/>
    <trip id="146" depart="51.10" from="0/7to0/8" to="4/3to4/4"/>
    <trip id="147" depart="51.45" from="1/1to0/1" to="3/2to3/1"/>
    <trip id="148" depart="51.80" from="4/1to4/0" to="1/4to2/4"/>
    <trip id="149" depart="52.15" from="1/2to2/2" to="3/3to4/3"/>
    <trip id="150" depart="52.50" from="2/0to1/0" to="1/1to1/0"/>
    <trip id="151" depart="52.85" from="1/9to2/9" to="0/8to1/8"/>
    <trip id="152" depart="53.20" from="1/3to1/2" to="2/8to2/9"/>
    <trip id="153" depart="53.55" from="4/3to4/2" to="1/7to1/8"/>
    <trip id="154" depart="53.90" from="0/6to0/7" to="4/2to4/1"/>
    <trip id="155" depart="54.25" from="right4to4/4" to="3/3to3/2"/>
    <trip id="156" depart="54.60" from="2/8to1/8" to="3/7to4/7"/>
    <trip id="157" depart="54.95" from="1/0to1/1" to="2/5to2/4"/>
    <trip id="158" depart="55.30" from="1/5to2/5" to="2/3to3/3"/>
    <trip id="159" depart="55.65" from="3/3to3/4" to="4/1to4/2"/>
    <trip id="160" depart="56.00" from="1/5to1/6" to="0/6toleft6"/>
    <trip id="161" depart="56.35" from="4/6to4/5" to="4/7to4/6"/>
    <trip id="162" depart="56.70" from="4/0to3/0" to="1/0to1/1"/>
    <trip id="163" depart="57.05" from="4/7to4/6" to="3/3to2/3"/>
    <trip id="164" depart="57.40" from="1/7to0/7" to="4/3to3/3"/>
    <trip id="165" depart="57.75" from="1/8to0/8" to="1/5to0/5"/>
    <trip id="166" depart="58.10" from="3/1to3/2" to="1/9to0/9"/>
    <trip id="167" depart="58.45" from="3/8to2/8" to="1/4to2/4"/>
    <trip id="168" depart="58.80" from="3/4to3/5" to="2/1to3/1"/>
    <trip id="169" depart="59.15" from="4/5to3/5" to="1/2to1/3"/>
    <trip id="170" depart="59.50" from="0/4to1/4" to="1/7to1/8"/>
    <trip id="171" depart="59.85" from="3/9to4/9" to="1/0to1/1"/>
    <trip id="172" depart="60.20" from="1/2to0/2" to="0/8to1/8"/>
    <trip id="173" depart="60.55" from="right4to4/4" to="4/7to3/7"/>
    <trip id="174" depart="60.90" from="1/1to0/1" to="2/6to3/6"/>
    <trip id="175" depart="61.25" from="2/2to1/2" to="0/3to0/2"/>
    <trip id="176" depart="61.60" from="3/8to4/8" to="4/8to3/8"/>
    <trip id="177" depart="61.95" from="3/4to4/4" to="3/4to3/5"/>
    <trip id="178" depart="62.30" from="2/8to3/8" to="2/6to2/5"/>
    <trip id="179" depart="62.65" from="4/9to4/8" to="4/5toright5"/>
    <trip id="180" depart="63.00" from="left2to0/2" to="0/9totop0"/>
    <trip id="181" depart="63.35" from="2/3to2/4" to="4/1to4/2"/>
    <trip id="182" depart="63.70" from="4/2to4/1" to="3/0to4/0"/>
    <trip id="183" depart="64.05" from="3/5to2/5" to="3/2to2/2"/>
    <trip id="184" depart="64.40" from="2/0to1/0" to="1/6to0/6"/>
    <trip id="185" depart="64.75" from="4/5to3/5" to="1/6to1/7"/>
    <trip id="186" depart="65.10" from="0/2to1/2" to="1/8to1/9"/>
    <trip id="187" depart="65.45" from="3/6to2/6" to="3/7to3/6"/>
    <trip id="188" depart="65.80" from="0/3to1/3" to="3/9to4/9"/>
    <trip id="189" depart="66.15" from="3/8to3/9" to="2/1to3/1"/>
    <trip id="190" depart="66.50" from="2/4to3/4" to="2/3to3/3"/>
    <trip id="191" depart="66.85" from="3/2to2/2" to="3/7to4/7"/>
    <trip id="192" depart="67.20" from="1/4to2/4" to="1/2to1/1"/>
    <trip id="193" depart="67.55" from="left4to0/4" to="3/9to3/8"/>
    <trip id="194" depart="67.90" from="4/4to4/3" to="0/3to0/2"/>
    <trip id="195" depart="68.25" from="1/0to0/0" to="2/1to1/1"/>
    <trip id="196" depart="68.60" from="2/1to1/1" to="3/0to2/0"/>
    <trip id="197" depart="68.95" from="3/9to2/9" to="2/9to2/8"/>
    <trip id="198" depart="69.30" from="0/1to1/1" to="3/7to3/6"/>
    <trip id="199" depart="69.65" from="4/8to4/9" to="3/1to2/1"/>
    <trip id="200" depart="70.00" from="2/7to3/7" to="3/8to4/8"/>
    <trip id="201" depart="70.35" from="1/1to0/1" to="0/6to1/6"/>
    <trip id="202" depart="70.70" from="2/1to3/1" to="1/5to0/5"/>
    <trip id="203" depart="71.05" from="left2to0/2" to="4/7toright7"/>
    <trip id="204" depart="71.40" from="3/2to2/2" to="3/5to3/4"/>
    <trip id="205" depart="71.75" from="1/8to2/8" to="4/0to3/0"/>
    <trip id="206" depart="72.10" from="2/5to2/4" to="4/8toright8"/>
    <trip id="207" depart="72.45" from="1/4to1/5" to="3/2to4/2"/>
    <trip id="208" depart="72.80" from="bottom2to2/0" to="2/5to2/4"/>
    <trip id="209" depart="73.15" from="1/5to1/4" to="2/8to1/8"/>
    <trip id="210" depart="73.50" from="4/1to4/2" to="4/1toright1"/>
    <trip id="211" depart="73.85" from="1/7to2/7" to="4/6to3/6"/>
    <trip id="212" depart="74.20" from="0/1to1/1" to="2/7to3/7"/>
    <trip id="213" depart="74.55" from="1/8to1/9" to="2/1to2/0"/>
    <trip id="214" depart="74.90" from="3/0to4/0" to="1/5to1/4"/>
    <trip id="215" depart="75.25" from="4/3to3/3" to="2/8to1/8"/>
    <trip id="216" depart="75.60" from="0/1to0/0" to="1/1to1/0"/>
    <trip id="217" depart="75.95" from="4/2to4/3" to="2/4to2/3"/>
    <trip id="218" depart="76.30" from="0/5to1/5" to="2/1to2/0"/>
    <trip id="219" depart="76.65" from="1/7to2/7" to="1/7to1/8"/>
    <trip id="220" depart="77.00" from="3/8to4/8" to="1/6to0/6"/>
    <trip id="221" depart="77.35" from="2/1to3/1" to="2/5to2/6"/>
    <trip id="222" depart="77.70" from="3/2to2/2" to="3/3to4/3"/>
    <trip id="223" depart="78.05" from="1/7to2/7" to="3/8to3/7"/>
    <trip id="224" depart="78.40" from="1/4to0/4" to="0/3to0/4"/>
    <trip id="225" depart="78.75" from="0/2to0/1" to="4/8to4/9"/>
    <trip id="226" depart="79.10" from="2/9to2/8" to="1/0to2/0"/>
    <trip id="227" depart="79.45" from="1/8to1/7" to="2/8to2/7"/>
    <trip id="228" depart="79.80" from="1/4to0/4" to="3/9to4/9"/>
    <trip id="229" depart="80.15" from="left4to0/4" to="2/6to1/6"/>
    <trip id="230" depart="80.50" from="4/2to3/2" to="3/7to4/7"/>
    <trip id="231" depart="80.85" from="2/1to2/2" to="1/9to0/9"/>
    <trip id="232" depart="81.20" from="right3to4/3" to="4/2to3/2"/>
    <trip id="233" depart="81.55" from="3/5to4/5" to="2/0to3/0"/>
    <trip id="234" depart="81.90" from="1/1to1/2" to="0/5toleft5"/>
    <trip id="235" depart="82.25" from="1/6to1/5" to="4/4to4/5"/>
    <trip id="236" depart="82.60" from="2/7to2/8" to="0/9to1/9"/>
    <trip id="237" depart="82.95" from="1/3to1/4" to="4/2toright2"/>
    <trip id="238" depart="83.30" from="1/6to1/5" to="1/1to1/2"/>
    <trip id="239" depart="83.65" from="left0to0/0" to="2/0to3/0"/>
    <trip id="240" depart="84.00" from="4/0to3/0" to="0/0tobottom0"/>
    <trip id="241" depart="84.35" from="top3to3/9" to="2/0to2/1"/>
    <trip id="242" depart="84.70" from="0/2to0/3" to="4/9toright9"/>
    <trip id="243" depart="85.05" from="2/4to3/4" to="3/8to3/7"/>
    <trip id="244" depart="85.40" from="2/8to3/8" to="1/2to1/3"/>
    <trip id="245" depart="85.75" from="4/1to4/2" to="4/3to4/2"/>
    <trip id="246" depart="86.10" from="1/1to2/1" to="1/9to0/9"/>
    <trip id="247" depart="86.45" from="3/9to2/9" to="4/8to4/9"/>
    <trip id="248" depart="86.80" from="2/7to1/7" to="3/1to3/2"/>
    <trip id="249" depart="87.15" from="left5to0/5" to="2/5to2/6"/>
    <trip id="250" depart="87.50" from="2/7to1/7" to="3/6to3/5"/>
    <trip id="251" depart="87.85" from="3/8to4/8" to="0/3to1/3"/>
    <trip id="252" depart="88.20" from="3/7to3/8" to="3/2to3/1"/>
    <trip id="253" depart="88.55" from="1/5to0/5" to="4/6toright6"/>
    <trip id="254" depart="88.90" from="top0to0/9" to="2/2to3/2"/>
    <trip id="255" depart="89.25" from="3/4to2/4" to="0/1toleft1"/>
    <trip id="256" depart="89.60" from="0/5to0/4" to="0/2to1/2"/>
    <trip id="257" depart="89.95" from="3/4to2/4" to="3/7to3/8"/>
    <trip id="258" depart="90.30" from="4/0to3/0" to="1/0to2/0"/>
    <trip id="259" depart="90.65" from="0/4to0/5" to="0/3to0/4"/>
    <trip id="260" depart="91.00" from="3/7to2/7" to="1/3to1/4"/>
    <trip id="261" depart="91.35" from="0/5to1/5" to="2/6to1/6"/>
    <trip id="262" depart="91.70" from="1/1to0/1" to="0/2toleft2"/>
    <trip id="263" depart="92.05" from="1/1to2/1" to="3/8to4/8"/>
    <trip id="264" depart="92.40" from="1/5to1/4" to="2/4to1/4"/>
    <trip id="265" depart="92.75" from="0/8to0/7" to="4/9totop4"/>
    <trip id="266" depart="93.10" from="3/3to3/2" to="4/3toright3"/>
    <trip id="267" depart="93.45" from="1/7to2/7" to="4/1to4/2"/>
    <trip id="268" depart="93.80" from="0/8to0/7" to="0/9to0/8"/>
    <trip id="269" depart="94.15" from="3/7to3/6" to="4/0to4/1"/>
    <trip id="270" depart="94.50" from="2/1to2/0" to="0/8toleft8"/>
    <trip id="271" depart="94.85" from="4/9to4/8" to="4/4toright4"/>
    <trip id="272" depart="95.20" from="3/4to4/4" to="3/1to2/1"/>
    <trip id="273" depart="95.55" from="4/3to4/2" to="4/0toright0"/>
    <trip id="274" depart="95.90" from="0/0to1/0" to="4/3to3/3"/>
    <trip id="275" depart="96.25" from="3/1to3/0" to="4/4to4/3"/>
    <trip id="276" depart="96.60" from="right3to4/3" to="1/3to1/4"/>
    <trip id="277" depart="96.95" from="2/4to2/3" to="4/1to4/0"/>
    <trip id="278" depart="97.30" from="right0to4/0" to="4/5toright5"/>
    <trip id="279" depart="97.65" from="left4to0/4" to="2/3to2/4"/>
    <trip id="280" depart="98.00" from="0/6to0/5" to="2/3to1/3"/>
    <trip id="281" depart="98.35" from="3/1to4/1" to="2/1to3/1"/>
    <trip id="282" depart="98.70" from="4/9to3/9" to="3/9to3/8"/>
    <trip id="283" depart="99.05" from="left3to0/3" to="4/6to4/7"/>
    <trip id="284" depart="99.40" from="4/5to3/5" to="2/6to1/6"/>
    <trip id="285" depart="99.75" from="bottom1to1/0" to="2/9to3/9"/>
</routes>
