<?xml version="1.0" encoding="UTF-8"?>

<!-- generated on Fri Aug  4 12:30:12 2017 by SUMO duarouter Version 0.30.0
<?xml version="1.0" encoding="UTF-8"?>

<configuration xmlns:xsi="http://www.w3.org/2001/XMLSchema-instance" xsi:noNamespaceSchemaLocation="http://sumo.dlr.de/xsd/duarouterConfiguration.xsd">

    <input>
        <net-file value="grid.net.xml"/>
        <trip-files value="grid-0p45/grid-0p45.trips.xml"/>
    </input>

    <output>
        <output-file value="grid-0p45/grid-0p45.rou.xml"/>
    </output>

    <processing>
        <ignore-errors value="true"/>
    </processing>

    <time>
        <begin value="0"/>
        <end value="100.0"/>
    </time>

    <report>
        <no-warnings value="true"/>
        <no-step-log value="true"/>
    </report>

</configuration>
-->

<routes xmlns:xsi="http://www.w3.org/2001/XMLSchema-instance" xsi:noNamespaceSchemaLocation="http://sumo.dlr.de/xsd/routes_file.xsd">
    <vehicle id="0" depart="0.00">
        <route edges="4/6to4/5 4/5to3/5"/>
    </vehicle>
    <vehicle id="1" depart="0.45">
        <route edges="right9to4/9 4/9to3/9 3/9to2/9 2/9to1/9"/>
    </vehicle>
    <vehicle id="2" depart="0.90">
        <route edges="1/2to1/3 1/3to2/3 2/3to3/3 3/3to4/3 4/3to4/2 4/2to3/2"/>
    </vehicle>
    <vehicle id="3" depart="1.35">
        <route edges="bottom3to3/0 3/0to4/0 4/0tobottom4"/>
    </vehicle>
    <vehicle id="4" depart="1.80">
        <route edges="2/8to3/8 3/8to3/7 3/7to2/7 2/7to1/7 1/7to1/8 1/8to1/9 1/9to2/9"/>
    </vehicle>
    <vehicle id="5" depart="2.25">
        <route edges="0/4to0/5 0/5to0/6 0/6to0/7 0/7to1/7 1/7to2/7 2/7to3/7 3/7to3/6"/>
    </vehicle>
    <vehicle id="6" depart="2.70">
        <route edges="2/6to1/6 1/6to1/5 1/5to2/5 2/5to3/5 3/5to4/5 4/5to4/6 4/6to3/6"/>
    </vehicle>
    <vehicle id="7" depart="3.15">
        <route edges="2/8to3/8 3/8to3/7 3/7to3/6 3/6to3/5 3/5to3/4 3/4to2/4"/>
    </vehicle>
    <vehicle id="8" depart="3.60">
        <route edges="1/3to0/3 0/3to0/2 0/2to0/1 0/1to1/1 1/1to1/2 1/2to0/2 0/2to0/3 0/3to1/3"/>
    </vehicle>
    <vehicle id="9" depart="4.05">
        <route edges="top2to2/9 2/9to2/8 2/8to2/7 2/7to2/6 2/6to2/5 2/5to1/5 1/5to0/5 0/5to0/6"/>
    </vehicle>
    <vehicle id="10" depart="4.50">
        <route edges="left9to0/9 0/9to0/8 0/8to0/7 0/7to0/6 0/6to0/5 0/5to0/4 0/4to0/3 0/3to0/2 0/2to1/2 1/2to1/1 1/1to1/0 1/0to2/0"/>
    </vehicle>
    <vehicle id="11" depart="4.95">
        <route edges="2/6to2/5 2/5to2/4 2/4to2/3 2/3to2/2 2/2to1/2 1/2to1/1"/>
    </vehicle>
    <vehicle id="12" depart="5.40">
        <route edges="2/5to2/4 2/4to2/3 2/3to2/2"/>
    </vehicle>
    <vehicle id="13" depart="5.85">
        <route edges="2/1to2/0 2/0to1/0 1/0to0/0 0/0to0/1 0/1to1/1"/>
    </vehicle>
    <vehicle id="14" depart="6.30">
        <route edges="right3to4/3 4/3to4/4 4/4to4/5 4/5to4/6 4/6to3/6 3/6to2/6 2/6to1/6 1/6to0/6 0/6to0/5"/>
    </vehicle>
    <vehicle id="15" depart="6.75">
        <route edges="2/3to1/3 1/3to1/4 1/4to1/5 1/5to1/6 1/6to1/7 1/7to1/8 1/8to2/8"/>
    </vehicle>
    <vehicle id="16" depart="7.20">
        <route edges="4/9to4/8 4/8to4/7 4/7to4/6 4/6to4/5 4/5to4/4 4/4to3/4 3/4to2/4 2/4to2/3 2/3to1/3 1/3to0/3 0/3to0/4"/>
    </vehicle>
    <vehicle id="17" depart="7.65">
        <route edges="2/8to2/7 2/7to1/7 1/7to1/8 1/8to1/9 1/9to2/9 2/9to3/9"/>
    </vehicle>
    <vehicle id="18" depart="8.10">
        <route edges="right9to4/9 4/9to4/8 4/8to4/7 4/7to4/6 4/6to4/5 4/5to4/4 4/4to4/3 4/3to4/2 4/2to4/1 4/1to4/0 4/0to3/0 3/0to3/1"/>
    </vehicle>
    <vehicle id="19" depart="8.55">
        <route edges="0/0to0/1 0/1to0/2 0/2to0/3 0/3to0/4 0/4to0/5 0/5to1/5 1/5to1/6 1/6to0/6"/>
    </vehicle>
    <vehicle id="20" depart="9.00">
        <route edges="4/9to3/9 3/9to3/8 3/8to3/7 3/7to3/6 3/6to3/5 3/5to3/4 3/4to3/3 3/3to4/3 4/3to4/4"/>
    </vehicle>
    <vehicle id="21" depart="9.45">
        <route edges="3/7to3/6 3/6to3/5 3/5to3/4 3/4to3/3 3/3to3/2 3/2to3/1 3/1to3/0 3/0to4/0 4/0to4/1"/>
    </vehicle>
    <vehicle id="22" depart="9.90">
        <route edges="right5to4/5 4/5to4/6 4/6to4/7"/>
    </vehicle>
    <vehicle id="23" depart="10.35">
        <route edges="0/2to0/1 0/1to1/1 1/1to1/2 1/2to1/3 1/3to1/4 1/4to1/5 1/5to0/5 0/5to0/6 0/6to1/6"/>
    </vehicle>
    <vehicle id="24" depart="10.80">
        <route edges="0/6to0/7 0/7to1/7 1/7to1/6 1/6to1/5 1/5to1/4 1/4to1/3 1/3to2/3 2/3to2/2 2/2to2/1 2/1to2/0 2/0to3/0 3/0to3/1"/>
    </vehicle>
    <vehicle id="25" depart="11.25">
        <route edges="0/4to0/3 0/3to1/3 1/3to1/4 1/4to1/5 1/5to1/6 1/6to1/7 1/7to2/7 2/7to2/8 2/8to3/8 3/8to4/8"/>
    </vehicle>
    <vehicle id="26" depart="11.70">
        <route edges="right3to4/3 4/3to4/2 4/2to4/1 4/1toright1"/>
    </vehicle>
    <vehicle id="27" depart="12.15">
        <route edges="1/6to1/7 1/7to0/7 0/7to0/8"/>
    </vehicle>
    <vehicle id="28" depart="12.60">
        <route edges="3/9to4/9 4/9to4/8 4/8to4/7 4/7to4/6 4/6to4/5 4/5to4/4 4/4to3/4 3/4to3/3 3/3to3/2 3/2to2/2 2/2to1/2 1/2to0/2 0/2to0/3"/>
    </vehicle>
    <vehicle id="29" depart="13.05">
        <route edges="1/8to2/8 2/8to3/8 3/8to4/8 4/8toright8"/>
    </vehicle>
    <vehicle id="30" depart="13.50">
        <route edges="0/9to1/9 1/9to1/8 1/8to1/7 1/7to1/6 1/6to2/6 2/6to3/6 3/6to4/6"/>
    </vehicle>
    <vehicle id="31" depart="13.95">
        <route edges="2/1to3/1 3/1to3/2 3/2to3/3 3/3to3/4 3/4to3/5 3/5to3/6 3/6to2/6 2/6to2/7 2/7to2/8 2/8to1/8"/>
    </vehicle>
    <vehicle id="32" depart="14.40">
        <route edges="2/1to1/1 1/1to1/2 1/2to1/3 1/3to1/4 1/4to1/5 1/5to1/6 1/6to0/6 0/6to0/7 0/7to0/8 0/8to0/9 0/9to1/9"/>
    </vehicle>
    <vehicle id="33" depart="14.85">
        <route edges="right3to4/3 4/3to4/4 4/4to4/5 4/5to4/6 4/6to4/7 4/7to3/7 3/7to2/7 2/7to2/8 2/8to2/9 2/9to1/9"/>
    </vehicle>
    <vehicle id="34" depart="15.30">
        <route edges="1/0to2/0 2/0to2/1 2/1to1/1 1/1to1/0 1/0to0/0"/>
    </vehicle>
    <vehicle id="35" depart="15.75">
        <route edges="right1to4/1 4/1to3/1 3/1to2/1 2/1to1/1 1/1to0/1 0/1to0/2 0/2to1/2"/>
    </vehicle>
    <vehicle id="36" depart="16.20">
        <route edges="3/2to2/2 2/2to2/1 2/1to3/1 3/1to3/2"/>
    </vehicle>
    <vehicle id="37" depart="16.65">
        <route edges="3/1to4/1 4/1to4/2 4/2to4/3 4/3to3/3 3/3to2/3 2/3to1/3 1/3to0/3"/>
    </vehicle>
    <vehicle id="38" depart="17.10">
        <route edges="3/7to3/8 3/8to2/8 2/8to2/7 2/7to2/6 2/6to2/5 2/5to2/4 2/4to1/4 1/4to1/3 1/3to0/3 0/3toleft3"/>
    </vehicle>
    <vehicle id="39" depart="17.55">
        <route edges="2/2to1/2 1/2to1/3 1/3to1/4 1/4to1/5 1/5to1/6 1/6to1/7 1/7to2/7 2/7to2/6"/>
    </vehicle>
    <vehicle id="40" depart="18.00">
        <route edges="4/4to4/3 4/3to3/3 3/3to3/4 3/4to3/5 3/5to3/6 3/6to2/6 2/6to1/6 1/6to0/6"/>
    </vehicle>
    <vehicle id="41" depart="18.45">
        <route edges="right6to4/6 4/6to4/5 4/5to4/4 4/4to3/4 3/4to3/3 3/3to4/3 4/3to4/4"/>
    </vehicle>
    <vehicle id="42" depart="18.90">
        <route edges="1/1to2/1 2/1to2/2 2/2to3/2 3/2to3/3 3/3to2/3"/>
    </vehicle>
    <vehicle id="43" depart="19.35">
        <route edges="left3to0/3 0/3to0/4 0/4to0/5 0/5to0/6 0/6to0/7 0/7to1/7 1/7to2/7 2/7to2/8 2/8to3/8 3/8to4/8 4/8to4/7"/>
    </vehicle>
    <vehicle id="44" depart="19.80">
        <route edges="left1to0/1 0/1to1/1 1/1to1/2 1/2to0/2 0/2to0/1"/>
    </vehicle>
    <vehicle id="45" depart="20.25">
        <route edges="2/7to2/8 2/8to1/8 1/8to1/7 1/7to1/6 1/6to1/5 1/5to1/4 1/4to1/3 1/3to1/2 1/2to1/1 1/1to2/1 2/1to2/2"/>
    </vehicle>
    <vehicle id="46" depart="20.70">
        <route edges="4/3to4/2 4/2to3/2 3/2to2/2 2/2to2/3 2/3to3/3"/>
    </vehicle>
    <vehicle id="47" depart="21.15">
        <route edges="3/7to3/6 3/6to3/5 3/5to3/4 3/4to3/3 3/3to3/2 3/2to3/1 3/1to2/1 2/1to2/0 2/0to3/0 3/0to3/1"/>
    </vehicle>
    <vehicle id="48" depart="21.60">
        <route edges="2/4to1/4 1/4to1/5 1/5to1/6 1/6to1/7 1/7to1/8 1/8to2/8"/>
    </vehicle>
    <vehicle id="49" depart="22.05">
        <route edges="2/2to2/1 2/1to1/1 1/1to1/2 1/2to2/2 2/2to3/2"/>
    </vehicle>
    <vehicle id="50" depart="22.50">
        <route edges="4/9to3/9 3/9to3/8 3/8to3/7 3/7to3/6 3/6to3/5 3/5to3/4 3/4to4/4 4/4toright4"/>
    </vehicle>
    <vehicle id="51" depart="22.95">
        <route edges="0/1to0/0 0/0to1/0 1/0to1/1 1/1to1/2 1/2to1/3 1/3to1/4 1/4to0/4 0/4toleft4"/>
    </vehicle>
    <vehicle id="52" depart="23.40">
        <route edges="4/6to4/5 4/5toright5"/>
    </vehicle>
    <vehicle id="53" depart="23.85">
        <route edges="1/0to2/0 2/0to2/1 2/1to2/2 2/2to2/3 2/3to2/4 2/4to1/4"/>
    </vehicle>
    <vehicle id="54" depart="24.30">
        <route edges="0/4to1/4 1/4to1/5 1/5to1/6 1/6to1/7 1/7to2/7 2/7to2/8 2/8to1/8"/>
    </vehicle>
    <vehicle id="55" depart="24.75">
        <route edges="0/6to1/6 1/6to2/6 2/6to3/6 3/6to3/5 3/5to3/4"/>
    </vehicle>
    <vehicle id="56" depart="25.20">
        <route edges="4/2to4/3 4/3to4/4 4/4to4/5 4/5to4/6 4/6to4/7 4/7to4/8 4/8to3/8 3/8to3/9 3/9to4/9"/>
    </vehicle>
    <vehicle id="57" depart="25.65">
        <route edges="0/7to1/7 1/7to1/6 1/6to1/5 1/5to1/4 1/4to0/4 0/4to0/3 0/3to1/3 1/3to1/4"/>
    </vehicle>
    <vehicle id="58" depart="26.10">
        <route edges="2/8to2/7 2/7to2/6 2/6to3/6 3/6to3/7 3/7to2/7"/>
    </vehicle>
    <vehicle id="59" depart="26.55">
        <route edges="3/3to3/4 3/4to3/5 3/5to3/6 3/6to3/7 3/7to3/8 3/8to2/8 2/8to1/8 1/8to0/8"/>
    </vehicle>
    <vehicle id="60" depart="27.00">
        <route edges="left3to0/3 0/3to0/4 0/4to0/5 0/5to0/6 0/6to1/6 1/6to1/7"/>
    </vehicle>
    <vehicle id="61" depart="27.45">
        <route edges="1/5to1/6 1/6to1/7 1/7to1/8 1/8to1/9 1/9totop1"/>
    </vehicle>
    <vehicle id="62" depart="27.90">
        <route edges="2/8to2/9 2/9to1/9 1/9to1/8 1/8to1/7 1/7to1/6 1/6to1/5 1/5to1/4 1/4to1/3 1/3to1/2 1/2to1/1"/>
    </vehicle>
    <vehicle id="63" depart="28.35">
        <route edges="0/5to0/6 0/6to1/6 1/6to1/5 1/5to1/4 1/4to1/3 1/3to1/2 1/2to2/2 2/2to2/1 2/1to3/1 3/1to4/1 4/1toright1"/>
    </vehicle>
    <vehicle id="64" depart="28.80">
        <route edges="2/0to3/0 3/0to3/1 3/1to3/2 3/2to3/3 3/3to3/4 3/4to3/5 3/5to2/5 2/5to2/6 2/6to2/7 2/7to2/8 2/8to3/8 3/8to3/7"/>
    </vehicle>
    <vehicle id="65" depart="29.25">
        <route edges="2/1to2/2 2/2to2/3 2/3to2/4 2/4to2/5 2/5to2/6 2/6to2/7 2/7to1/7 1/7to0/7"/>
    </vehicle>
    <vehicle id="66" depart="29.70">
        <route edges="2/9to2/8 2/8to2/7 2/7to2/6 2/6to1/6 1/6to0/6 0/6to0/5"/>
    </vehicle>
    <vehicle id="67" depart="30.15">
        <route edges="4/9to4/8 4/8to4/7 4/7to4/6 4/6to3/6 3/6to2/6 2/6to1/6 1/6to0/6"/>
    </vehicle>
    <vehicle id="68" depart="30.60">
        <route edges="3/8to3/7 3/7to4/7 4/7to4/8"/>
    </vehicle>
    <vehicle id="69" depart="31.05">
        <route edges="right9to4/9 4/9to4/8 4/8to3/8 3/8to2/8 2/8to1/8"/>
    </vehicle>
    <vehicle id="70" depart="31.50">
        <route edges="2/5to2/4 2/4to3/4 3/4to3/5 3/5to3/6 3/6to3/7 3/7to2/7"/>
    </vehicle>
    <vehicle id="71" depart="31.95">
        <route edges="3/3to3/2 3/2to2/2 2/2to2/3 2/3to2/4 2/4to3/4 3/4to4/4"/>
    </vehicle>
    <vehicle id="72" depart="32.40">
        <route edges="2/4to3/4"/>
    </vehicle>
    <vehicle id="73" depart="32.85">
        <route edges="3/6to3/7 3/7to2/7 2/7to2/6 2/6to2/5 2/5to2/4 2/4to2/3 2/3to3/3 3/3to3/2 3/2to3/1 3/1to3/0 3/0tobottom3"/>
    </vehicle>
    <vehicle id="74" depart="33.30">
        <route edges="4/6to3/6 3/6to3/5 3/5to3/4 3/4to3/3 3/3to3/2 3/2to3/1 3/1to2/1 2/1to1/1"/>
    </vehicle>
    <vehicle id="75" depart="33.75">
        <route edges="3/1to2/1 2/1to2/2 2/2to2/3 2/3to2/4 2/4to2/5 2/5to2/6 2/6to3/6 3/6to4/6 4/6to4/7 4/7to3/7"/>
    </vehicle>
    <vehicle id="76" depart="34.20">
        <route edges="4/7to4/6 4/6to4/5 4/5to4/4 4/4to4/3 4/3to4/2 4/2to3/2 3/2to2/2 2/2to2/1 2/1to3/1"/>
    </vehicle>
    <vehicle id="77" depart="34.65">
        <route edges="2/8to3/8 3/8to3/9 3/9to2/9 2/9to1/9 1/9to0/9 0/9totop0"/>
    </vehicle>
    <vehicle id="78" depart="35.10">
        <route edges="3/1to4/1 4/1to4/0 4/0to3/0 3/0to2/0 2/0to1/0 1/0to0/0 0/0to0/1"/>
    </vehicle>
    <vehicle id="79" depart="35.55">
        <route edges="bottom1to1/0 1/0to1/1 1/1to1/2 1/2to1/3 1/3to0/3 0/3to0/4 0/4to1/4"/>
    </vehicle>
    <vehicle id="80" depart="36.00">
        <route edges="1/7to0/7 0/7to0/6 0/6to0/5 0/5to0/4 0/4to0/3 0/3to0/2 0/2to1/2 1/2to1/1 1/1to2/1 2/1to3/1 3/1to4/1 4/1to4/0 4/0to3/0"/>
    </vehicle>
    <vehicle id="81" depart="36.45">
        <route edges="0/9to1/9 1/9to1/8 1/8to1/7 1/7to1/6 1/6to1/5 1/5to1/4 1/4to1/3 1/3to1/2"/>
    </vehicle>
    <vehicle id="82" depart="36.90">
        <route edges="4/4to4/3 4/3to3/3 3/3to3/4 3/4to4/4 4/4to4/5 4/5to3/5"/>
    </vehicle>
    <vehicle id="83" depart="37.35">
        <route edges="2/5to1/5 1/5to1/6 1/6to1/7 1/7to1/8 1/8to1/9 1/9to2/9 2/9to3/9"/>
    </vehicle>
    <vehicle id="84" depart="37.80">
        <route edges="3/4to3/5 3/5to4/5 4/5to4/4 4/4to4/3 4/3to3/3 3/3to2/3"/>
    </vehicle>
    <vehicle id="85" depart="38.25">
        <route edges="1/2to1/3 1/3to1/4 1/4to1/5 1/5to1/6 1/6to1/7 1/7to2/7 2/7to3/7 3/7to3/8 3/8to3/9 3/9to4/9 4/9totop4"/>
    </vehicle>
    <vehicle id="86" depart="38.70">
        <route edges="2/9to2/8 2/8to1/8 1/8to1/7"/>
    </vehicle>
    <vehicle id="87" depart="39.15">
        <route edges="3/5to4/5 4/5to4/4 4/4to3/4 3/4to2/4 2/4to2/5 2/5to1/5 1/5to0/5 0/5toleft5"/>
    </vehicle>
    <vehicle id="88" depart="39.60">
        <route edges="3/8to2/8 2/8to2/7 2/7to2/6 2/6to2/5 2/5to2/4 2/4to2/3 2/3to1/3 1/3to1/2 1/2to0/2 0/2to0/1"/>
    </vehicle>
    <vehicle id="89" depart="40.05">
        <route edges="3/9to3/8 3/8to3/7 3/7to3/6 3/6to3/5 3/5to3/4 3/4to3/3 3/3to3/2 3/2to3/1 3/1to2/1 2/1to2/0 2/0to1/0 1/0to0/0 0/0to0/1"/>
    </vehicle>
    <vehicle id="90" depart="40.50">
        <route edges="4/0to3/0 3/0to3/1 3/1to3/2 3/2to2/2 2/2to2/3 2/3to3/3"/>
    </vehicle>
    <vehicle id="91" depart="40.95">
        <route edges="2/7to3/7 3/7to3/8 3/8to4/8 4/8to4/9 4/9to3/9"/>
    </vehicle>
    <vehicle id="92" depart="41.40">
        <route edges="1/8to0/8 0/8to0/7 0/7to1/7 1/7to1/8"/>
    </vehicle>
    <vehicle id="93" depart="41.85">
        <route edges="4/3to4/4 4/4to3/4 3/4to3/3 3/3to3/2 3/2to3/1 3/1to3/0 3/0to2/0 2/0tobottom2"/>
    </vehicle>
    <vehicle id="94" depart="42.30">
        <route edges="1/2to0/2 0/2to0/3"/>
    </vehicle>
    <vehicle id="95" depart="42.75">
        <route edges="1/5to1/6 1/6to0/6 0/6to0/5 0/5to0/4 0/4to0/3 0/3to0/2 0/2to1/2 1/2to1/1 1/1to1/0 1/0to2/0 2/0to2/1"/>
    </vehicle>
    <vehicle id="96" depart="43.20">
        <route edges="3/8to3/7 3/7to3/6 3/6to3/5 3/5to3/4 3/4to3/3 3/3to3/2 3/2to3/1 3/1to2/1 2/1to2/0 2/0to3/0 3/0to3/1"/>
    </vehicle>
    <vehicle id="97" depart="43.65">
        <route edges="3/2to3/1 3/1to3/0 3/0to2/0 2/0to1/0 1/0to1/1 1/1to2/1"/>
    </vehicle>
    <vehicle id="98" depart="44.10">
        <route edges="0/8to1/8 1/8to1/7 1/7to1/6 1/6to1/5 1/5to1/4 1/4to1/3 1/3to1/2 1/2to1/1 1/1to2/1"/>
    </vehicle>
    <vehicle id="99" depart="44.55">
        <route edges="4/4to4/5 4/5to4/6 4/6to3/6 3/6to2/6 2/6to2/7"/>
    </vehicle>
    <vehicle id="100" depart="45.00">
        <route edges="top0to0/9 0/9to0/8 0/8to0/7 0/7to0/6 0/6to0/5 0/5to0/4 0/4to0/3 0/3to0/2 0/2to1/2 1/2to1/1 1/1to1/0 1/0to2/0 2/0to2/1"/>
    </vehicle>
    <vehicle id="101" depart="45.45">
        <route edges="left9to0/9 0/9to1/9 1/9to1/8"/>
    </vehicle>
    <vehicle id="102" depart="45.90">
        <route edges="top1to1/9 1/9to1/8 1/8to1/7 1/7to1/6 1/6to1/5 1/5to1/4 1/4to1/3 1/3to1/2 1/2to2/2 2/2to2/1 2/1to3/1 3/1to3/0"/>
    </vehicle>
    <vehicle id="103" depart="46.35">
        <route edges="4/8to4/7 4/7to3/7 3/7to2/7 2/7to1/7 1/7to1/8 1/8to2/8"/>
    </vehicle>
    <vehicle id="104" depart="46.80">
        <route edges="1/0to2/0 2/0to2/1 2/1to2/2 2/2to2/3"/>
    </vehicle>
    <vehicle id="105" depart="47.25">
        <route edges="4/3to4/2 4/2to4/1 4/1to3/1 3/1to2/1 2/1to1/1 1/1to1/2 1/2to2/2"/>
    </vehicle>
    <vehicle id="106" depart="47.70">
        <route edges="4/9to4/8 4/8to4/7 4/7to4/6 4/6to4/5 4/5to4/4 4/4to4/3 4/3to4/2 4/2to3/2 3/2to3/1"/>
    </vehicle>
    <vehicle id="107" depart="48.15">
        <route edges="2/8to1/8 1/8to1/7 1/7to1/6 1/6to1/5 1/5to1/4 1/4to1/3 1/3to2/3 2/3to2/2 2/2to2/1 2/1to3/1 3/1to3/2"/>
    </vehicle>
    <vehicle id="108" depart="48.60">
        <route edges="top0to0/9 0/9to0/8 0/8to0/7 0/7to0/6 0/6to0/5 0/5to0/4 0/4to0/3 0/3to0/2 0/2to1/2 1/2to2/2 2/2to2/1 2/1to1/1"/>
    </vehicle>
    <vehicle id="109" depart="49.05">
        <route edges="3/6to2/6 2/6to2/5 2/5to2/4 2/4to3/4 3/4to4/4 4/4toright4"/>
    </vehicle>
    <vehicle id="110" depart="49.50">
        <route edges="1/8to2/8 2/8to2/7 2/7to2/6 2/6to2/5 2/5to2/4 2/4to2/3 2/3to1/3 1/3to1/2 1/2to0/2 0/2to0/1"/>
    </vehicle>
    <vehicle id="111" depart="49.95">
        <route edges="2/6to2/5 2/5to1/5 1/5to1/6 1/6to1/7 1/7to1/8 1/8to0/8"/>
    </vehicle>
    <vehicle id="112" depart="50.40">
        <route edges="left6to0/6 0/6to0/5 0/5to0/4 0/4to1/4 1/4to2/4 2/4to3/4 3/4to3/3"/>
    </vehicle>
    <vehicle id="113" depart="50.85">
        <route edges="2/1to3/1 3/1to3/2 3/2to3/3 3/3to3/4 3/4to3/5 3/5to3/6 3/6to3/7 3/7to3/8 3/8to4/8 4/8to4/7"/>
    </vehicle>
    <vehicle id="114" depart="51.30">
        <route edges="bottom3to3/0 3/0to3/1 3/1to3/2 3/2to2/2 2/2to1/2 1/2to1/1"/>
    </vehicle>
    <vehicle id="115" depart="51.75">
        <route edges="top4to4/9 4/9to4/8 4/8to4/7 4/7to4/6 4/6to4/5 4/5to4/4 4/4to4/3 4/3to4/2 4/2to3/2 3/2to3/1 3/1to2/1"/>
    </vehicle>
    <vehicle id="116" depart="52.20">
        <route edges="1/7to2/7 2/7to2/8 2/8to3/8 3/8to3/9"/>
    </vehicle>
    <vehicle id="117" depart="52.65">
        <route edges="1/5to0/5 0/5to0/4 0/4to0/3 0/3to1/3 1/3to2/3 2/3to3/3 3/3to4/3"/>
    </vehicle>
    <vehicle id="118" depart="53.10">
        <route edges="0/7to0/8 0/8to1/8 1/8to1/7 1/7to1/6 1/6to1/5 1/5to1/4 1/4to2/4 2/4to2/3 2/3to2/2 2/2to3/2 3/2to4/2 4/2to4/1 4/1to3/1"/>
    </vehicle>
    <vehicle id="119" depart="53.55">
        <route edges="right5to4/5 4/5to4/6 4/6to4/7 4/7to4/8 4/8to3/8 3/8to2/8 2/8to1/8 1/8to1/9"/>
    </vehicle>
    <vehicle id="120" depart="54.00">
        <route edges="1/8to1/9 1/9to0/9 0/9to0/8 0/8to0/7 0/7to0/6 0/6to0/5 0/5to0/4 0/4to0/3 0/3to0/2 0/2to0/1 0/1to1/1 1/1to1/2"/>
    </vehicle>
    <vehicle id="121" depart="54.45">
        <route edges="2/6to2/5 2/5to1/5 1/5to1/6 1/6to1/7 1/7to0/7 0/7to0/6"/>
    </vehicle>
    <vehicle id="122" depart="54.90">
        <route edges="right8to4/8 4/8to4/7"/>
    </vehicle>
    <vehicle id="123" depart="55.35">
        <route edges="1/6to0/6 0/6to0/7 0/7to0/8 0/8to0/9 0/9to1/9 1/9to1/8"/>
    </vehicle>
    <vehicle id="124" depart="55.80">
        <route edges="1/9to2/9 2/9to2/8 2/8to1/8 1/8to1/9 1/9to0/9"/>
    </vehicle>
    <vehicle id="125" depart="56.25">
        <route edges="1/7to2/7 2/7to2/6 2/6to2/5 2/5to2/4 2/4to2/3 2/3to2/2 2/2to3/2 3/2to3/1 3/1to4/1 4/1toright1"/>
    </vehicle>
    <vehicle id="126" depart="56.70">
        <route edges="2/7to3/7 3/7to3/6 3/6to3/5 3/5to3/4 3/4to3/3 3/3to3/2 3/2to4/2 4/2to4/1 4/1to4/0 4/0toright0"/>
    </vehicle>
    <vehicle id="127" depart="57.15">
        <route edges="2/9to3/9 3/9to3/8 3/8to3/7 3/7to3/6 3/6to3/5 3/5to3/4 3/4to3/3 3/3to3/2 3/2to3/1 3/1to3/0"/>
    </vehicle>
    <vehicle id="128" depart="57.60">
        <route edges="3/2to4/2 4/2to4/3 4/3to4/4 4/4to3/4 3/4to3/5"/>
    </vehicle>
    <vehicle id="129" depart="58.05">
        <route edges="1/8to1/9 1/9to2/9 2/9to2/8 2/8to3/8 3/8to4/8 4/8to4/9 4/9to3/9"/>
    </vehicle>
    <vehicle id="130" depart="58.50">
        <route edges="2/8to2/7 2/7to1/7 1/7to1/6 1/6to2/6"/>
    </vehicle>
    <vehicle id="131" depart="58.95">
        <route edges="3/4to4/4 4/4to4/5 4/5to3/5 3/5to2/5 2/5to1/5 1/5to0/5 0/5to0/6"/>
    </vehicle>
    <vehicle id="132" depart="59.40">
        <route edges="bottom3to3/0 3/0to3/1 3/1to3/2 3/2to3/3 3/3to2/3 2/3to2/4 2/4to3/4 3/4to3/3"/>
    </vehicle>
    <vehicle id="133" depart="59.85">
        <route edges="0/6to1/6 1/6to1/7 1/7to1/8 1/8to1/9 1/9to2/9 2/9to3/9"/>
    </vehicle>
    <vehicle id="134" depart="60.30">
        <route edges="1/8to0/8 0/8to0/7 0/7to1/7 1/7to2/7 2/7to2/8 2/8to3/8 3/8to4/8"/>
    </vehicle>
    <vehicle id="135" depart="60.75">
        <route edges="2/0to3/0 3/0to3/1 3/1to3/2 3/2to3/3"/>
    </vehicle>
    <vehicle id="136" depart="61.20">
        <route edges="1/7to2/7 2/7to2/6 2/6to2/5 2/5to2/4 2/4to1/4 1/4to1/3 1/3to2/3"/>
    </vehicle>
    <vehicle id="137" depart="61.65">
        <route edges="1/1to1/2 1/2to1/3 1/3to1/4 1/4to1/5 1/5to1/6 1/6to2/6 2/6to3/6 3/6to3/7 3/7to3/8 3/8to4/8 4/8to4/9 4/9to3/9"/>
    </vehicle>
    <vehicle id="138" depart="62.10">
        <route edges="1/9to0/9 0/9to0/8 0/8to1/8 1/8to2/8 2/8to3/8"/>
    </vehicle>
    <vehicle id="139" depart="62.55">
        <route edges="0/3to0/2 0/2to1/2 1/2to1/3 1/3to1/4 1/4to0/4 0/4to0/5"/>
    </vehicle>
    <vehicle id="140" depart="63.00">
        <route edges="left4to0/4 0/4to0/3 0/3to0/2 0/2to0/1 0/1to0/0 0/0to1/0 1/0to2/0 2/0to3/0"/>
    </vehicle>
    <vehicle id="141" depart="63.45">
        <route edges="2/1to1/1 1/1to1/2 1/2to1/3 1/3to1/4 1/4to2/4 2/4to2/5 2/5to1/5"/>
    </vehicle>
    <vehicle id="142" depart="63.90">
        <route edges="left4to0/4 0/4to0/5 0/5to0/6 0/6to0/7 0/7to0/8 0/8toleft8"/>
    </vehicle>
    <vehicle id="143" depart="64.35">
        <route edges="top0to0/9 0/9to0/8 0/8to0/7 0/7to0/6 0/6to0/5 0/5to0/4 0/4to0/3 0/3to0/2 0/2to1/2 1/2to1/1 1/1to1/0"/>
    </vehicle>
    <vehicle id="144" depart="64.80">
        <route edges="0/7to1/7 1/7to1/6 1/6to1/5 1/5to1/4 1/4to1/3 1/3to1/2 1/2to1/1 1/1to0/1"/>
    </vehicle>
    <vehicle id="145" depart="65.25">
        <route edges="0/7to0/8 0/8to1/8 1/8to1/7 1/7to1/6 1/6to1/5 1/5to1/4 1/4to0/4 0/4to0/3 0/3to0/2 0/2to0/1 0/1to1/1 1/1to1/2"/>
    </vehicle>
    <vehicle id="146" depart="65.70">
        <route edges="3/7to3/8 3/8to2/8 2/8to2/7 2/7to2/6 2/6to2/5 2/5to2/4 2/4to1/4 1/4to1/3 1/3to0/3 0/3to0/4"/>
    </vehicle>
    <vehicle id="147" depart="66.15">
        <route edges="right5to4/5 4/5to4/4 4/4to4/3 4/3to4/2 4/2to4/1"/>
    </vehicle>
    <vehicle id="148" depart="66.60">
        <route edges="left5to0/5 0/5to1/5 1/5to2/5 2/5to2/4"/>
    </vehicle>
    <vehicle id="149" depart="67.05">
        <route edges="3/2to2/2 2/2to2/3 2/3to2/4 2/4to2/5 2/5to2/6 2/6to3/6 3/6to4/6 4/6to4/5"/>
    </vehicle>
    <vehicle id="150" depart="67.50">
        <route edges="1/2to2/2 2/2to2/1 2/1to3/1 3/1to4/1 4/1to4/2 4/2to3/2"/>
    </vehicle>
    <vehicle id="151" depart="67.95">
        <route edges="3/7to3/8 3/8to2/8 2/8to2/7 2/7to2/6 2/6to2/5 2/5to2/4 2/4to1/4 1/4to1/3 1/3to1/2 1/2to1/1 1/1to1/0 1/0to0/0 0/0toleft0"/>
    </vehicle>
    <vehicle id="152" depart="68.40">
        <route edges="0/7to0/8 0/8to1/8 1/8to1/7 1/7to1/6 1/6to1/5 1/5to1/4 1/4to2/4 2/4to2/3 2/3to2/2 2/2to1/2"/>
    </vehicle>
    <vehicle id="153" depart="68.85">
        <route edges="3/9to3/8 3/8to2/8 2/8to2/9 2/9to3/9 3/9totop3"/>
    </vehicle>
    <vehicle id="154" depart="69.30">
        <route edges="3/5to2/5 2/5to2/4 2/4to2/3 2/3to2/2 2/2to2/1 2/1to3/1 3/1to4/1"/>
    </vehicle>
    <vehicle id="155" depart="69.75">
        <route edges="left8to0/8 0/8to0/7 0/7to0/6 0/6to0/5 0/5to1/5 1/5to1/6"/>
    </vehicle>
    <vehicle id="156" depart="70.20">
        <route edges="4/8to4/7 4/7to3/7 3/7to2/7 2/7to1/7 1/7to1/8 1/8to2/8"/>
    </vehicle>
    <vehicle id="157" depart="70.65">
        <route edges="2/5to2/6 2/6to2/7 2/7to2/8 2/8to2/9 2/9to1/9"/>
    </vehicle>
    <vehicle id="158" depart="71.10">
        <route edges="4/4to4/3 4/3to3/3 3/3to2/3 2/3to2/4 2/4to3/4 3/4to3/3"/>
    </vehicle>
    <vehicle id="159" depart="71.55">
        <route edges="bottom4to4/0 4/0to4/1 4/1to4/2 4/2to4/3 4/3to3/3 3/3to3/2"/>
    </vehicle>
    <vehicle id="160" depart="72.00">
        <route edges="2/2to3/2 3/2to3/1 3/1to2/1 2/1to1/1 1/1to1/2 1/2to1/3"/>
    </vehicle>
    <vehicle id="161" depart="72.45">
        <route edges="3/3to3/2 3/2to2/2 2/2to2/3 2/3to2/4 2/4to2/5 2/5to2/6 2/6to2/7"/>
    </vehicle>
    <vehicle id="162" depart="72.90">
        <route edges="left5to0/5 0/5to0/6 0/6to0/7 0/7to0/8 0/8to1/8 1/8to1/9 1/9to0/9 0/9to0/8"/>
    </vehicle>
    <vehicle id="163" depart="73.35">
        <route edges="3/8to3/9 3/9to2/9 2/9to2/8 2/8to1/8"/>
    </vehicle>
    <vehicle id="164" depart="73.80">
        <route edges="4/7to3/7 3/7to2/7 2/7to1/7 1/7to1/8"/>
    </vehicle>
    <vehicle id="165" depart="74.25">
        <route edges="1/4to2/4 2/4to2/3 2/3to1/3 1/3to1/2"/>
    </vehicle>
    <vehicle id="166" depart="74.70">
        <route edges="2/5to2/6 2/6to3/6 3/6to4/6 4/6to4/5 4/5to3/5"/>
    </vehicle>
    <vehicle id="167" depart="75.15">
        <route edges="1/7to2/7 2/7to2/6 2/6to1/6 1/6to0/6 0/6to0/7 0/7toleft7"/>
    </vehicle>
    <vehicle id="168" depart="75.60">
        <route edges="1/9to2/9 2/9to2/8 2/8to2/7 2/7to2/6 2/6to2/5 2/5to2/4 2/4to1/4 1/4to1/3 1/3to1/2 1/2to0/2"/>
    </vehicle>
    <vehicle id="169" depart="76.05">
        <route edges="1/8to2/8 2/8to3/8 3/8to4/8 4/8to4/7 4/7to4/6"/>
    </vehicle>
    <vehicle id="170" depart="76.50">
        <route edges="0/4to0/3 0/3to1/3 1/3to1/4 1/4to1/5 1/5to0/5 0/5to0/4"/>
    </vehicle>
    <vehicle id="171" depart="76.95">
        <route edges="left5to0/5 0/5to0/6 0/6to0/7 0/7to0/8 0/8to0/9 0/9to1/9 1/9to2/9 2/9to3/9 3/9to4/9 4/9to4/8"/>
    </vehicle>
    <vehicle id="172" depart="77.40">
        <route edges="1/6to1/5 1/5to2/5 2/5to2/6 2/6to2/7 2/7to2/8 2/8to3/8 3/8to4/8 4/8to4/7"/>
    </vehicle>
    <vehicle id="173" depart="77.85">
        <route edges="top4to4/9 4/9to4/8 4/8to4/7 4/7to4/6 4/6to4/5 4/5to4/4 4/4to4/3 4/3to4/2 4/2to4/1 4/1to4/0"/>
    </vehicle>
    <vehicle id="174" depart="78.30">
        <route edges="2/8to2/7 2/7to1/7 1/7to1/8 1/8to1/9 1/9to2/9 2/9to3/9"/>
    </vehicle>
    <vehicle id="175" depart="78.75">
        <route edges="2/4to1/4 1/4to1/5 1/5to1/6 1/6to1/7 1/7to1/8 1/8to2/8"/>
    </vehicle>
    <vehicle id="176" depart="79.20">
        <route edges="4/3to4/4 4/4to3/4 3/4to3/3 3/3to2/3 2/3to1/3 1/3to0/3 0/3to0/4 0/4to1/4"/>
    </vehicle>
    <vehicle id="177" depart="79.65">
        <route edges="3/2to3/1 3/1to4/1 4/1to4/2 4/2to4/3 4/3to4/4 4/4to3/4 3/4to2/4"/>
    </vehicle>
    <vehicle id="178" depart="80.10">
        <route edges="0/3to0/2 0/2to1/2 1/2to1/3 1/3to1/4 1/4to2/4 2/4to3/4 3/4to4/4 4/4to4/3"/>
    </vehicle>
    <vehicle id="179" depart="80.55">
        <route edges="bottom4to4/0 4/0to4/1 4/1to4/2"/>
    </vehicle>
    <vehicle id="180" depart="81.00">
        <route edges="2/8to3/8 3/8to3/9 3/9to2/9 2/9to1/9 1/9to1/8"/>
    </vehicle>
    <vehicle id="181" depart="81.45">
        <route edges="1/1to0/1 0/1to0/2 0/2to0/3 0/3to0/4 0/4to0/5 0/5to0/6 0/6to1/6 1/6to1/7 1/7to1/8 1/8to1/9 1/9to2/9 2/9to3/9 3/9totop3"/>
    </vehicle>
    <vehicle id="182" depart="81.90">
        <route edges="2/5to1/5 1/5to1/4 1/4to1/3 1/3to1/2 1/2to0/2 0/2toleft2"/>
    </vehicle>
    <vehicle id="183" depart="82.35">
        <route edges="2/6to3/6 3/6to3/5 3/5to2/5 2/5to1/5 1/5to1/6 1/6to0/6 0/6to0/7 0/7to1/7"/>
    </vehicle>
    <vehicle id="184" depart="82.80">
        <route edges="0/1to0/0 0/0to1/0 1/0to1/1 1/1to0/1 0/1toleft1"/>
    </vehicle>
    <vehicle id="185" depart="83.25">
        <route edges="0/1to1/1 1/1to1/2 1/2to1/3 1/3to1/4 1/4to1/5 1/5to1/6 1/6to1/7 1/7to2/7"/>
    </vehicle>
    <vehicle id="186" depart="83.70">
        <route edges="1/5to1/6 1/6to2/6 2/6to2/5 2/5to2/4 2/4to2/3 2/3to2/2 2/2to2/1 2/1to2/0 2/0to3/0"/>
    </vehicle>
    <vehicle id="187" depart="84.15">
        <route edges="1/0to0/0 0/0to0/1 0/1to0/2 0/2to0/3 0/3to1/3 1/3to2/3 2/3to3/3 3/3to4/3 4/3toright3"/>
    </vehicle>
    <vehicle id="188" depart="84.60">
        <route edges="right8to4/8 4/8to4/7 4/7to4/6 4/6to4/5 4/5to4/4 4/4to4/3 4/3to4/2 4/2to4/1 4/1to3/1 3/1to2/1 2/1to1/1 1/1to0/1 0/1to0/0 0/0to1/0"/>
    </vehicle>
    <vehicle id="189" depart="85.05">
        <route edges="3/7to3/8 3/8to4/8 4/8to4/7"/>
    </vehicle>
    <vehicle id="190" depart="85.50">
        <route edges="4/0to3/0 3/0to3/1 3/1to3/2 3/2to3/3 3/3to3/4 3/4to3/5 3/5to3/6 3/6to3/7 3/7to3/8"/>
    </vehicle>
    <vehicle id="191" depart="85.95">
        <route edges="1/5to1/6 1/6to0/6 0/6to0/5 0/5to0/4 0/4to0/3 0/3to0/2 0/2to1/2 1/2to1/1 1/1to1/0"/>
    </vehicle>
    <vehicle id="192" depart="86.40">
        <route edges="0/6to1/6 1/6to2/6 2/6to3/6 3/6to3/7 3/7to4/7 4/7to4/6"/>
    </vehicle>
    <vehicle id="193" depart="86.85">
        <route edges="bottom4to4/0 4/0to4/1 4/1to4/2 4/2to4/3 4/3to4/4 4/4to4/5 4/5to4/6 4/6to3/6 3/6to3/7 3/7to4/7 4/7to4/6"/>
    </vehicle>
    <vehicle id="194" depart="87.30">
        <route edges="0/6to0/7 0/7to1/7 1/7to1/6 1/6to1/5 1/5to1/4 1/4to1/3 1/3to2/3 2/3to3/3 3/3to3/4"/>
    </vehicle>
    <vehicle id="195" depart="87.75">
        <route edges="1/7to1/6 1/6to2/6 2/6to3/6 3/6to4/6 4/6to4/5"/>
    </vehicle>
    <vehicle id="196" depart="88.20">
        <route edges="3/1to4/1 4/1to4/2 4/2toright2"/>
    </vehicle>
    <vehicle id="197" depart="88.65">
        <route edges="3/8to3/9 3/9to2/9 2/9to2/8 2/8to2/7 2/7to2/6 2/6to2/5 2/5to1/5 1/5to0/5 0/5to0/4"/>
    </vehicle>
    <vehicle id="198" depart="89.10">
        <route edges="3/5to3/4 3/4to2/4 2/4to2/5 2/5to2/6 2/6to2/7 2/7to2/8 2/8to2/9 2/9totop2"/>
    </vehicle>
    <vehicle id="199" depart="89.55">
        <route edges="left1to0/1 0/1to0/2 0/2to0/3 0/3to1/3 1/3to2/3 2/3to3/3 3/3to3/4"/>
    </vehicle>
    <vehicle id="200" depart="90.00">
        <route edges="1/0to0/0 0/0to0/1 0/1to0/2 0/2to0/3 0/3to0/4 0/4to1/4"/>
    </vehicle>
    <vehicle id="201" depart="90.45">