<configuration>
	<input>
		<net-file value="diag2.net.xml"/>
		<route-files value="diag2-sparse.rou.xml"/>
	</input>
	<time>
		<begin value="0"/>
		<end value="3600"/>
		<step-length value="0.01"/>
	</time>
<remote-port value="55353"/><seed value="4"/><random value="false"/></configuration>