<?xml version="1.0" encoding="UTF-8"?>

<!-- generated on 06/14/17 03:49:16 by SUMO netgenerate Version 0.29.0
<?xml version="1.0" encoding="UTF-8"?>

<configuration xmlns:xsi="http://www.w3.org/2001/XMLSchema-instance" xsi:noNamespaceSchemaLocation="http://sumo.dlr.de/xsd/netgenerateConfiguration.xsd">

    <grid_network>
        <grid value="true"/>
        <grid.x-number value="5"/>
        <grid.y-number value="10"/>
        <grid.x-length value="275"/>
        <grid.y-length value="80"/>
        <grid.attach-length value="20"/>
    </grid_network>

    <output>
        <output-file value="grid2.net.xml"/>
    </output>

</configuration>
-->

<net version="0.27" xmlns:xsi="http://www.w3.org/2001/XMLSchema-instance" xsi:noNamespaceSchemaLocation="http://sumo.dlr.de/xsd/net_file.xsd">

    <location netOffset="0.00,0.00" convBoundary="0.00,0.00,1140.00,760.00" origBoundary="0.00,0.00,1140.00,760.00" projParameter="!"/>

    <edge id=":0/0_0" function="internal">
        <lane id=":0/0_0_0" index="0" speed="13.90" length="5.00" shape="18.35,24.75 18.16,23.39 17.58,22.42 16.61,21.84 15.25,21.65"/>
    </edge>
    <edge id=":0/0_1" function="internal">
        <lane id=":0/0_1_0" index="0" speed="13.90" length="9.50" shape="18.35,24.75 18.35,15.25"/>
    </edge>
    <edge id=":0/0_2" function="internal">
        <lane id=":0/0_2_0" index="0" speed="13.90" length="5.28" shape="18.35,24.75 18.75,21.95 19.95,19.95 20.05,19.89"/>
    </edge>
    <edge id=":0/0_3" function="internal">
        <lane id=":0/0_3_0" index="0" speed="13.90" length="2.41" shape="18.35,24.75 19.17,23.51 20.00,23.10"/>
    </edge>
    <edge id=":0/0_16" function="internal">
        <lane id=":0/0_16_0" index="0" speed="13.90" length="5.04" shape="20.05,19.89 21.95,18.75 24.75,18.35"/>
    </edge>
    <edge id=":0/0_17" function="internal">
        <lane id=":0/0_17_0" index="0" speed="13.90" length="2.41" shape="20.00,23.10 20.82,23.51 21.65,24.75"/>
    </edge>
    <edge id=":0/0_4" function="internal">
        <lane id=":0/0_4_0" index="0" speed="13.90" length="5.00" shape="24.75,21.65 23.39,21.84 22.42,22.43 21.84,23.39 21.65,24.75"/>
    </edge>
    <edge id=":0/0_5" function="internal">
        <lane id=":0/0_5_0" index="0" speed="13.90" length="9.50" shape="24.75,21.65 15.25,21.65"/>
    </edge>
    <edge id=":0/0_6" function="internal">
        <lane id=":0/0_6_0" index="0" speed="13.90" length="10.32" shape="24.75,21.65 21.95,21.25 19.95,20.05 18.75,18.05 18.35,15.25"/>
    </edge>
    <edge id=":0/0_7" function="internal">
        <lane id=":0/0_7_0" index="0" speed="13.90" length="4.82" shape="24.75,21.65 23.51,20.83 23.10,20.00 23.51,19.18 24.75,18.35"/>
    </edge>
    <edge id=":0/0_8" function="internal">
        <lane id=":0/0_8_0" index="0" speed="13.90" length="5.00" shape="21.65,15.25 21.84,16.61 22.42,17.57 23.39,18.16 24.75,18.35"/>
    </edge>
    <edge id=":0/0_9" function="internal">
        <lane id=":0/0_9_0" index="0" speed="13.90" length="9.50" shape="21.65,15.25 21.65,24.75"/>
    </edge>
    <edge id=":0/0_10" function="internal">
        <lane id=":0/0_10_0" index="0" speed="13.90" length="5.28" shape="21.65,15.25 21.25,18.05 20.05,20.05 19.95,20.11"/>
    </edge>
    <edge id=":0/0_11" function="internal">
        <lane id=":0/0_11_0" index="0" speed="13.90" length="2.41" shape="21.65,15.25 20.83,16.49 20.00,16.90"/>
    </edge>
    <edge id=":0/0_18" function="internal">
        <lane id=":0/0_18_0" index="0" speed="13.90" length="5.04" shape="19.95,20.11 18.05,21.25 15.25,21.65"/>
    </edge>
    <edge id=":0/0_19" function="internal">
        <lane id=":0/0_19_0" index="0" speed="13.90" length="2.41" shape="20.00,16.90 19.18,16.49 18.35,15.25"/>
    </edge>
    <edge id=":0/0_12" function="internal">
        <lane id=":0/0_12_0" index="0" speed="13.90" length="5.00" shape="15.25,18.35 16.61,18.16 17.57,17.58 18.16,16.61 18.35,15.25"/>
    </edge>
    <edge id=":0/0_13" function="internal">
        <lane id=":0/0_13_0" index="0" speed="13.90" length="9.50" shape="15.25,18.35 24.75,18.35"/>
    </edge>
    <edge id=":0/0_14" function="internal">
        <lane id=":0/0_14_0" index="0" speed="13.90" length="10.32" shape="15.25,18.35 18.05,18.75 20.05,19.95 21.25,21.95 21.65,24.75"/>
    </edge>
    <edge id=":0/0_15" function="internal">
        <lane id=":0/0_15_0" index="0" speed="13.90" length="4.82" shape="15.25,18.35 16.49,19.17 16.90,20.00 16.49,20.82 15.25,21.65"/>
    </edge>
    <edge id=":0/1_0" function="internal">
        <lane id=":0/1_0_0" index="0" speed="13.90" length="5.00" shape="18.35,104.75 18.16,103.39 17.58,102.43 16.61,101.84 15.25,101.65"/>
    </edge>
    <edge id=":0/1_1" function="internal">
        <lane id=":0/1_1_0" index="0" speed="13.90" length="9.50" shape="18.35,104.75 18.35,95.25"/>
    </edge>
    <edge id=":0/1_2" function="internal">
        <lane id=":0/1_2_0" index="0" speed="13.90" length="5.28" shape="18.35,104.75 18.75,101.95 19.95,99.95 20.05,99.89"/>
    </edge>
    <edge id=":0/1_3" function="internal">
        <lane id=":0/1_3_0" index="0" speed="13.90" length="2.41" shape="18.35,104.75 19.17,103.51 20.00,103.10"/>
    </edge>
    <edge id=":0/1_16" function="internal">
        <lane id=":0/1_16_0" index="0" speed="13.90" length="5.04" shape="20.05,99.89 21.95,98.75 24.75,98.35"/>
    </edge>
    <edge id=":0/1_17" function="internal">
        <lane id=":0/1_17_0" index="0" speed="13.90" length="2.41" shape="20.00,103.10 20.82,103.51 21.65,104.75"/>
    </edge>
    <edge id=":0/1_4" function="internal">
        <lane id=":0/1_4_0" index="0" speed="13.90" length="5.00" shape="24.75,101.65 23.39,101.84 22.42,102.43 21.84,103.39 21.65,104.75"/>
    </edge>
    <edge id=":0/1_5" function="internal">
        <lane id=":0/1_5_0" index="0" speed="13.90" length="9.50" shape="24.75,101.65 15.25,101.65"/>
    </edge>
    <edge id=":0/1_6" function="internal">
        <lane id=":0/1_6_0" index="0" speed="13.90" length="10.32" shape="24.75,101.65 21.95,101.25 19.95,100.05 18.75,98.05 18.35,95.25"/>
    </edge>
    <edge id=":0/1_7" function="internal">
        <lane id=":0/1_7_0" index="0" speed="13.90" length="4.82" shape="24.75,101.65 23.51,100.82 23.10,100.00 23.51,99.17 24.75,98.35"/>
    </edge>
    <edge id=":0/1_8" function="internal">
        <lane id=":0/1_8_0" index="0" speed="13.90" length="5.00" shape="21.65,95.25 21.84,96.61 22.42,97.57 23.39,98.16 24.75,98.35"/>
    </edge>
    <edge id=":0/1_9" function="internal">
        <lane id=":0/1_9_0" index="0" speed="13.90" length="9.50" shape="21.65,95.25 21.65,104.75"/>
    </edge>
    <edge id=":0/1_10" function="internal">
        <lane id=":0/1_10_0" index="0" speed="13.90" length="5.28" shape="21.65,95.25 21.25,98.05 20.05,100.05 19.95,100.11"/>
    </edge>
    <edge id=":0/1_11" function="internal">
        <lane id=":0/1_11_0" index="0" speed="13.90" length="2.41" shape="21.65,95.25 20.83,96.49 20.00,96.90"/>
    </edge>
    <edge id=":0/1_18" function="internal">
        <lane id=":0/1_18_0" index="0" speed="13.90" length="5.04" shape="19.95,100.11 18.05,101.25 15.25,101.65"/>
    </edge>
    <edge id=":0/1_19" function="internal">
        <lane id=":0/1_19_0" index="0" speed="13.90" length="2.41" shape="20.00,96.90 19.18,96.49 18.35,95.25"/>
    </edge>
    <edge id=":0/1_12" function="internal">
        <lane id=":0/1_12_0" index="0" speed="13.90" length="5.00" shape="15.25,98.35 16.61,98.16 17.57,97.57 18.16,96.61 18.35,95.25"/>
    </edge>
    <edge id=":0/1_13" function="internal">
        <lane id=":0/1_13_0" index="0" speed="13.90" length="9.50" shape="15.25,98.35 24.75,98.35"/>
    </edge>
    <edge id=":0/1_14" function="internal">
        <lane id=":0/1_14_0" index="0" speed="13.90" length="10.32" shape="15.25,98.35 18.05,98.75 20.05,99.95 21.25,101.95 21.65,104.75"/>
    </edge>
    <edge id=":0/1_15" function="internal">
        <lane id=":0/1_15_0" index="0" speed="13.90" length="4.82" shape="15.25,98.35 16.49,99.18 16.90,100.00 16.49,100.83 15.25,101.65"/>
    </edge>
    <edge id=":0/2_0" function="internal">
        <lane id=":0/2_0_0" index="0" speed="13.90" length="5.00" shape="18.35,184.75 18.16,183.39 17.58,182.42 16.61,181.84 15.25,181.65"/>
    </edge>
    <edge id=":0/2_1" function="internal">
        <lane id=":0/2_1_0" index="0" speed="13.90" length="9.50" shape="18.35,184.75 18.35,175.25"/>
    </edge>
    <edge id=":0/2_2" function="internal">
        <lane id=":0/2_2_0" index="0" speed="13.90" length="5.28" shape="18.35,184.75 18.75,181.95 19.95,179.95 20.05,179.89"/>
    </edge>
    <edge id=":0/2_3" function="internal">
        <lane id=":0/2_3_0" index="0" speed="13.90" length="2.41" shape="18.35,184.75 19.17,183.51 20.00,183.10"/>
    </edge>
    <edge id=":0/2_16" function="internal">
        <lane id=":0/2_16_0" index="0" speed="13.90" length="5.04" shape="20.05,179.89 21.95,178.75 24.75,178.35"/>
    </edge>
    <edge id=":0/2_17" function="internal">
        <lane id=":0/2_17_0" index="0" speed="13.90" length="2.41" shape="20.00,183.10 20.82,183.51 21.65,184.75"/>
    </edge>
    <edge id=":0/2_4" function="internal">
        <lane id=":0/2_4_0" index="0" speed="13.90" length="5.00" shape="24.75,181.65 23.39,181.84 22.42,182.43 21.84,183.39 21.65,184.75"/>
    </edge>
    <edge id=":0/2_5" function="internal">
        <lane id=":0/2_5_0" index="0" speed="13.90" length="9.50" shape="24.75,181.65 15.25,181.65"/>
    </edge>
    <edge id=":0/2_6" function="internal">
        <lane id=":0/2_6_0" index="0" speed="13.90" length="10.32" shape="24.75,181.65 21.95,181.25 19.95,180.05 18.75,178.05 18.35,175.25"/>
    </edge>
    <edge id=":0/2_7" function="internal">
        <lane id=":0/2_7_0" index="0" speed="13.90" length="4.82" shape="24.75,181.65 23.51,180.83 23.10,180.00 23.51,179.18 24.75,178.35"/>
    </edge>
    <edge id=":0/2_8" function="internal">
        <lane id=":0/2_8_0" index="0" speed="13.90" length="5.00" shape="21.65,175.25 21.84,176.61 22.42,177.58 23.39,178.16 24.75,178.35"/>
    </edge>
    <edge id=":0/2_9" function="internal">
        <lane id=":0/2_9_0" index="0" speed="13.90" length="9.50" shape="21.65,175.25 21.65,184.75"/>
    </edge>
    <edge id=":0/2_10" function="internal">
        <lane id=":0/2_10_0" index="0" speed="13.90" length="5.28" shape="21.65,175.25 21.25,178.05 20.05,180.05 19.95,180.11"/>
    </edge>
    <edge id=":0/2_11" function="internal">
        <lane id=":0/2_11_0" index="0" speed="13.90" length="2.41" shape="21.65,175.25 20.83,176.49 20.00,176.90"/>
    </edge>
    <edge id=":0/2_18" function="internal">
        <lane id=":0/2_18_0" index="0" speed="13.90" length="5.04" shape="19.95,180.11 18.05,181.25 15.25,181.65"/>
    </edge>
    <edge id=":0/2_19" function="internal">
        <lane id=":0/2_19_0" index="0" speed="13.90" length="2.41" shape="20.00,176.90 19.18,176.49 18.35,175.25"/>
    </edge>
    <edge id=":0/2_12" function="internal">
        <lane id=":0/2_12_0" index="0" speed="13.90" length="5.00" shape="15.25,178.35 16.61,178.16 17.57,177.57 18.16,176.61 18.35,175.25"/>
    </edge>
    <edge id=":0/2_13" function="internal">
        <lane id=":0/2_13_0" index="0" speed="13.90" length="9.50" shape="15.25,178.35 24.75,178.35"/>
    </edge>
    <edge id=":0/2_14" function="internal">
        <lane id=":0/2_14_0" index="0" speed="13.90" length="10.32" shape="15.25,178.35 18.05,178.75 20.05,179.95 21.25,181.95 21.65,184.75"/>
    </edge>
    <edge id=":0/2_15" function="internal">
        <lane id=":0/2_15_0" index="0" speed="13.90" length="4.82" shape="15.25,178.35 16.49,179.17 16.90,180.00 16.49,180.82 15.25,181.65"/>
    </edge>
    <edge id=":0/3_0" function="internal">
        <lane id=":0/3_0_0" index="0" speed="13.90" length="5.00" shape="18.35,264.75 18.16,263.39 17.58,262.42 16.61,261.84 15.25,261.65"/>
    </edge>
    <edge id=":0/3_1" function="internal">
        <lane id=":0/3_1_0" index="0" speed="13.90" length="9.50" shape="18.35,264.75 18.35,255.25"/>
    </edge>
    <edge id=":0/3_2" function="internal">
        <lane id=":0/3_2_0" index="0" speed="13.90" length="5.28" shape="18.35,264.75 18.75,261.95 19.95,259.95 20.05,259.89"/>
    </edge>
    <edge id=":0/3_3" function="internal">
        <lane id=":0/3_3_0" index="0" speed="13.90" length="2.41" shape="18.35,264.75 19.17,263.51 20.00,263.10"/>
    </edge>
    <edge id=":0/3_16" function="internal">
        <lane id=":0/3_16_0" index="0" speed="13.90" length="5.04" shape="20.05,259.89 21.95,258.75 24.75,258.35"/>
    </edge>
    <edge id=":0/3_17" function="internal">
        <lane id=":0/3_17_0" index="0" speed="13.90" length="2.41" shape="20.00,263.10 20.82,263.51 21.65,264.75"/>
    </edge>
    <edge id=":0/3_4" function="internal">
        <lane id=":0/3_4_0" index="0" speed="13.90" length="5.00" shape="24.75,261.65 23.39,261.84 22.42,262.42 21.84,263.39 21.65,264.75"/>
    </edge>
    <edge id=":0/3_5" function="internal">
        <lane id=":0/3_5_0" index="0" speed="13.90" length="9.50" shape="24.75,261.65 15.25,261.65"/>
    </edge>
    <edge id=":0/3_6" function="internal">
        <lane id=":0/3_6_0" index="0" speed="13.90" length="10.32" shape="24.75,261.65 21.95,261.25 19.95,260.05 18.75,258.05 18.35,255.25"/>
    </edge>
    <edge id=":0/3_7" function="internal">
        <lane id=":0/3_7_0" index="0" speed="13.90" length="4.82" shape="24.75,261.65 23.51,260.82 23.10,260.00 23.51,259.18 24.75,258.35"/>
    </edge>
    <edge id=":0/3_8" function="internal">
        <lane id=":0/3_8_0" index="0" speed="13.90" length="5.00" shape="21.65,255.25 21.84,256.61 22.42,257.58 23.39,258.16 24.75,258.35"/>
    </edge>
    <edge id=":0/3_9" function="internal">
        <lane id=":0/3_9_0" index="0" speed="13.90" length="9.50" shape="21.65,255.25 21.65,264.75"/>
    </edge>
    <edge id=":0/3_10" function="internal">
        <lane id=":0/3_10_0" index="0" speed="13.90" length="5.28" shape="21.65,255.25 21.25,258.05 20.05,260.05 19.95,260.11"/>
    </edge>
    <edge id=":0/3_11" function="internal">
        <lane id=":0/3_11_0" index="0" speed="13.90" length="2.41" shape="21.65,255.25 20.83,256.49 20.00,256.90"/>
    </edge>
    <edge id=":0/3_18" function="internal">
        <lane id=":0/3_18_0" index="0" speed="13.90" length="5.04" shape="19.95,260.11 18.05,261.25 15.25,261.65"/>
    </edge>
    <edge id=":0/3_19" function="internal">
        <lane id=":0/3_19_0" index="0" speed="13.90" length="2.41" shape="20.00,256.90 19.18,256.49 18.35,255.25"/>
    </edge>
    <edge id=":0/3_12" function="internal">
        <lane id=":0/3_12_0" index="0" speed="13.90" length="5.00" shape="15.25,258.35 16.61,258.16 17.57,257.58 18.16,256.61 18.35,255.25"/>
    </edge>
    <edge id=":0/3_13" function="internal">
        <lane id=":0/3_13_0" index="0" speed="13.90" length="9.50" shape="15.25,258.35 24.75,258.35"/>
    </edge>
    <edge id=":0/3_14" function="internal">
        <lane id=":0/3_14_0" index="0" speed="13.90" length="10.32" shape="15.25,258.35 18.05,258.75 20.05,259.95 21.25,261.95 21.65,264.75"/>
    </edge>
    <edge id=":0/3_15" function="internal">
        <lane id=":0/3_15_0" index="0" speed="13.90" length="4.82" shape="15.25,258.35 16.49,259.18 16.90,260.00 16.49,260.82 15.25,261.65"/>
    </edge>
    <edge id=":0/4_0" function="internal">
        <lane id=":0/4_0_0" index="0" speed="13.90" length="5.00" shape="18.35,344.75 18.16,343.39 17.58,342.42 16.61,341.84 15.25,341.65"/>
    </edge>
    <edge id=":0/4_1" function="internal">
        <lane id=":0/4_1_0" index="0" speed="13.90" length="9.50" shape="18.35,344.75 18.35,335.25"/>
    </edge>
    <edge id=":0/4_2" function="internal">
        <lane id=":0/4_2_0" index="0" speed="13.90" length="5.28" shape="18.35,344.75 18.75,341.95 19.95,339.95 20.05,339.89"/>
    </edge>
    <edge id=":0/4_3" function="internal">
        <lane id=":0/4_3_0" index="0" speed="13.90" length="2.41" shape="18.35,344.75 19.17,343.51 20.00,343.10"/>
    </edge>
    <edge id=":0/4_16" function="internal">
        <lane id=":0/4_16_0" index="0" speed="13.90" length="5.04" shape="20.05,339.89 21.95,338.75 24.75,338.35"/>
    </edge>
    <edge id=":0/4_17" function="internal">
        <lane id=":0/4_17_0" index="0" speed="13.90" length="2.41" shape="20.00,343.10 20.82,343.51 21.65,344.75"/>
    </edge>
    <edge id=":0/4_4" function="internal">
        <lane id=":0/4_4_0" index="0" speed="13.90" length="5.00" shape="24.75,341.65 23.39,341.84 22.42,342.42 21.84,343.39 21.65,344.75"/>
    </edge>
    <edge id=":0/4_5" function="internal">
        <lane id=":0/4_5_0" index="0" speed="13.90" length="9.50" shape="24.75,341.65 15.25,341.65"/>
    </edge>
    <edge id=":0/4_6" function="internal">
        <lane id=":0/4_6_0" index="0" speed="13.90" length="10.32" shape="24.75,341.65 21.95,341.25 19.95,340.05 18.75,338.05 18.35,335.25"/>
    </edge>
    <edge id=":0/4_7" function="internal">
        <lane id=":0/4_7_0" index="0" speed="13.90" length="4.82" shape="24.75,341.65 23.51,340.83 23.10,340.00 23.51,339.18 24.75,338.35"/>
    </edge>
    <edge id=":0/4_8" function="internal">
        <lane id=":0/4_8_0" index="0" speed="13.90" length="5.00" shape="21.65,335.25 21.84,336.61 22.42,337.58 23.39,338.16 24.75,338.35"/>
    </edge>
    <edge id=":0/4_9" function="internal">
        <lane id=":0/4_9_0" index="0" speed="13.90" length="9.50" shape="21.65,335.25 21.65,344.75"/>
    </edge>
    <edge id=":0/4_10" function="internal">
        <lane id=":0/4_10_0" index="0" speed="13.90" length="5.28" shape="21.65,335.25 21.25,338.05 20.05,340.05 19.95,340.11"/>
    </edge>
    <edge id=":0/4_11" function="internal">
        <lane id=":0/4_11_0" index="0" speed="13.90" length="2.41" shape="21.65,335.25 20.83,336.49 20.00,336.90"/>
    </edge>
    <edge id=":0/4_18" function="internal">
        <lane id=":0/4_18_0" index="0" speed="13.90" length="5.04" shape="19.95,340.11 18.05,341.25 15.25,341.65"/>
    </edge>
    <edge id=":0/4_19" function="internal">
        <lane id=":0/4_19_0" index="0" speed="13.90" length="2.41" shape="20.00,336.90 19.18,336.49 18.35,335.25"/>
    </edge>
    <edge id=":0/4_12" function="internal">
        <lane id=":0/4_12_0" index="0" speed="13.90" length="5.00" shape="15.25,338.35 16.61,338.16 17.57,337.58 18.16,336.61 18.35,335.25"/>
    </edge>
    <edge id=":0/4_13" function="internal">
        <lane id=":0/4_13_0" index="0" speed="13.90" length="9.50" shape="15.25,338.35 24.75,338.35"/>
    </edge>
    <edge id=":0/4_14" function="internal">
        <lane id=":0/4_14_0" index="0" speed="13.90" length="10.32" shape="15.25,338.35 18.05,338.75 20.05,339.95 21.25,341.95 21.65,344.75"/>
    </edge>
    <edge id=":0/4_15" function="internal">
        <lane id=":0/4_15_0" index="0" speed="13.90" length="4.82" shape="15.25,338.35 16.49,339.17 16.90,340.00 16.49,340.82 15.25,341.65"/>
    </edge>
    <edge id=":0/5_0" function="internal">
        <lane id=":0/5_0_0" index="0" speed="13.90" length="5.00" shape="18.35,424.75 18.16,423.39 17.58,422.42 16.61,421.84 15.25,421.65"/>
    </edge>
    <edge id=":0/5_1" function="internal">
        <lane id=":0/5_1_0" index="0" speed="13.90" length="9.50" shape="18.35,424.75 18.35,415.25"/>
    </edge>
    <edge id=":0/5_2" function="internal">
        <lane id=":0/5_2_0" index="0" speed="13.90" length="5.28" shape="18.35,424.75 18.75,421.95 19.95,419.95 20.05,419.89"/>
    </edge>
    <edge id=":0/5_3" function="internal">
        <lane id=":0/5_3_0" index="0" speed="13.90" length="2.41" shape="18.35,424.75 19.17,423.51 20.00,423.10"/>
    </edge>
    <edge id=":0/5_16" function="internal">
        <lane id=":0/5_16_0" index="0" speed="13.90" length="5.04" shape="20.05,419.89 21.95,418.75 24.75,418.35"/>
    </edge>
    <edge id=":0/5_17" function="internal">
        <lane id=":0/5_17_0" index="0" speed="13.90" length="2.41" shape="20.00,423.10 20.82,423.51 21.65,424.75"/>
    </edge>
    <edge id=":0/5_4" function="internal">
        <lane id=":0/5_4_0" index="0" speed="13.90" length="5.00" shape="24.75,421.65 23.39,421.84 22.42,422.42 21.84,423.39 21.65,424.75"/>
    </edge>
    <edge id=":0/5_5" function="internal">
        <lane id=":0/5_5_0" index="0" speed="13.90" length="9.50" shape="24.75,421.65 15.25,421.65"/>
    </edge>
    <edge id=":0/5_6" function="internal">
        <lane id=":0/5_6_0" index="0" speed="13.90" length="10.32" shape="24.75,421.65 21.95,421.25 19.95,420.05 18.75,418.05 18.35,415.25"/>
    </edge>
    <edge id=":0/5_7" function="internal">
        <lane id=":0/5_7_0" index="0" speed="13.90" length="4.82" shape="24.75,421.65 23.51,420.83 23.10,420.00 23.51,419.18 24.75,418.35"/>
    </edge>
    <edge id=":0/5_8" function="internal">
        <lane id=":0/5_8_0" index="0" speed="13.90" length="5.00" shape="21.65,415.25 21.84,416.61 22.42,417.58 23.39,418.16 24.75,418.35"/>
    </edge>
    <edge id=":0/5_9" function="internal">
        <lane id=":0/5_9_0" index="0" speed="13.90" length="9.50" shape="21.65,415.25 21.65,424.75"/>
    </edge>
    <edge id=":0/5_10" function="internal">
        <lane id=":0/5_10_0" index="0" speed="13.90" length="5.28" shape="21.65,415.25 21.25,418.05 20.05,420.05 19.95,420.11"/>
    </edge>
    <edge id=":0/5_11" function="internal">
        <lane id=":0/5_11_0" index="0" speed="13.90" length="2.41" shape="21.65,415.25 20.83,416.49 20.00,416.90"/>
    </edge>
    <edge id=":0/5_18" function="internal">
        <lane id=":0/5_18_0" index="0" speed="13.90" length="5.04" shape="19.95,420.11 18.05,421.25 15.25,421.65"/>
    </edge>
    <edge id=":0/5_19" function="internal">
        <lane id=":0/5_19_0" index="0" speed="13.90" length="2.41" shape="20.00,416.90 19.18,416.49 18.35,415.25"/>
    </edge>
    <edge id=":0/5_12" function="internal">
        <lane id=":0/5_12_0" index="0" speed="13.90" length="5.00" shape="15.25,418.35 16.61,418.16 17.57,417.58 18.16,416.61 18.35,415.25"/>
    </edge>
    <edge id=":0/5_13" function="internal">
        <lane id=":0/5_13_0" index="0" speed="13.90" length="9.50" shape="15.25,418.35 24.75,418.35"/>
    </edge>
    <edge id=":0/5_14" function="internal">
        <lane id=":0/5_14_0" index="0" speed="13.90" length="10.32" shape="15.25,418.35 18.05,418.75 20.05,419.95 21.25,421.95 21.65,424.75"/>
    </edge>
    <edge id=":0/5_15" function="internal">
        <lane id=":0/5_15_0" index="0" speed="13.90" length="4.82" shape="15.25,418.35 16.49,419.17 16.90,420.00 16.49,420.82 15.25,421.65"/>
    </edge>
    <edge id=":0/6_0" function="internal">
        <lane id=":0/6_0_0" index="0" speed="13.90" length="5.00" shape="18.35,504.75 18.16,503.39 17.58,502.42 16.61,501.84 15.25,501.65"/>
    </edge>
    <edge id=":0/6_1" function="internal">
        <lane id=":0/6_1_0" index="0" speed="13.90" length="9.50" shape="18.35,504.75 18.35,495.25"/>
    </edge>
    <edge id=":0/6_2" function="internal">
        <lane id=":0/6_2_0" index="0" speed="13.90" length="5.28" shape="18.35,504.75 18.75,501.95 19.95,499.95 20.05,499.89"/>
    </edge>
    <edge id=":0/6_3" function="internal">
        <lane id=":0/6_3_0" index="0" speed="13.90" length="2.41" shape="18.35,504.75 19.17,503.51 20.00,503.10"/>
    </edge>
    <edge id=":0/6_16" function="internal">
        <lane id=":0/6_16_0" index="0" speed="13.90" length="5.04" shape="20.05,499.89 21.95,498.75 24.75,498.35"/>
    </edge>
    <edge id=":0/6_17" function="internal">
        <lane id=":0/6_17_0" index="0" speed="13.90" length="2.41" shape="20.00,503.10 20.82,503.51 21.65,504.75"/>
    </edge>
    <edge id=":0/6_4" function="internal">
        <lane id=":0/6_4_0" index="0" speed="13.90" length="5.00" shape="24.75,501.65 23.39,501.84 22.42,502.42 21.84,503.39 21.65,504.75"/>
    </edge>
    <edge id=":0/6_5" function="internal">
        <lane id=":0/6_5_0" index="0" speed="13.90" length="9.50" shape="24.75,501.65 15.25,501.65"/>
    </edge>
    <edge id=":0/6_6" function="internal">
        <lane id=":0/6_6_0" index="0" speed="13.90" length="10.32" shape="24.75,501.65 21.95,501.25 19.95,500.05 18.75,498.05 18.35,495.25"/>
    </edge>
    <edge id=":0/6_7" function="internal">
        <lane id=":0/6_7_0" index="0" speed="13.90" length="4.82" shape="24.75,501.65 23.51,500.82 23.10,500.00 23.51,499.18 24.75,498.35"/>
    </edge>
    <edge id=":0/6_8" function="internal">
        <lane id=":0/6_8_0" index="0" speed="13.90" length="5.00" shape="21.65,495.25 21.84,496.61 22.42,497.58 23.39,498.16 24.75,498.35"/>
    </edge>
    <edge id=":0/6_9" function="internal">
        <lane id=":0/6_9_0" index="0" speed="13.90" length="9.50" shape="21.65,495.25 21.65,504.75"/>
    </edge>
    <edge id=":0/6_10" function="internal">
        <lane id=":0/6_10_0" index="0" speed="13.90" length="5.28" shape="21.65,495.25 21.25,498.05 20.05,500.05 19.95,500.11"/>
    </edge>
    <edge id=":0/6_11" function="internal">
        <lane id=":0/6_11_0" index="0" speed="13.90" length="2.41" shape="21.65,495.25 20.83,496.49 20.00,496.90"/>
    </edge>
    <edge id=":0/6_18" function="internal">
        <lane id=":0/6_18_0" index="0" speed="13.90" length="5.04" shape="19.95,500.11 18.05,501.25 15.25,501.65"/>
    </edge>
    <edge id=":0/6_19" function="internal">
        <lane id=":0/6_19_0" index="0" speed="13.90" length="2.41" shape="20.00,496.90 19.18,496.49 18.35,495.25"/>
    </edge>
    <edge id=":0/6_12" function="internal">
        <lane id=":0/6_12_0" index="0" speed="13.90" length="5.00" shape="15.25,498.35 16.61,498.16 17.57,497.58 18.16,496.61 18.35,495.25"/>
    </edge>
    <edge id=":0/6_13" function="internal">
        <lane id=":0/6_13_0" index="0" speed="13.90" length="9.50" shape="15.25,498.35 24.75,498.35"/>
    </edge>
    <edge id=":0/6_14" function="internal">
        <lane id=":0/6_14_0" index="0" speed="13.90" length="10.32" shape="15.25,498.35 18.05,498.75 20.05,499.95 21.25,501.95 21.65,504.75"/>
    </edge>
    <edge id=":0/6_15" function="internal">
        <lane id=":0/6_15_0" index="0" speed="13.90" length="4.82" shape="15.25,498.35 16.49,499.18 16.90,500.00 16.49,500.82 15.25,501.65"/>
    </edge>
    <edge id=":0/7_0" function="internal">
        <lane id=":0/7_0_0" index="0" speed="13.90" length="5.00" shape="18.35,584.75 18.16,583.39 17.58,582.42 16.61,581.84 15.25,581.65"/>
    </edge>
    <edge id=":0/7_1" function="internal">
        <lane id=":0/7_1_0" index="0" speed="13.90" length="9.50" shape="18.35,584.75 18.35,575.25"/>
    </edge>
    <edge id=":0/7_2" function="internal">
        <lane id=":0/7_2_0" index="0" speed="13.90" length="5.28" shape="18.35,584.75 18.75,581.95 19.95,579.95 20.05,579.89"/>
    </edge>
    <edge id=":0/7_3" function="internal">
        <lane id=":0/7_3_0" index="0" speed="13.90" length="2.41" shape="18.35,584.75 19.17,583.51 20.00,583.10"/>
    </edge>
    <edge id=":0/7_16" function="internal">
        <lane id=":0/7_16_0" index="0" speed="13.90" length="5.04" shape="20.05,579.89 21.95,578.75 24.75,578.35"/>
    </edge>
    <edge id=":0/7_17" function="internal">
        <lane id=":0/7_17_0" index="0" speed="13.90" length="2.41" shape="20.00,583.10 20.82,583.51 21.65,584.75"/>
    </edge>
    <edge id=":0/7_4" function="internal">
        <lane id=":0/7_4_0" index="0" speed="13.90" length="5.00" shape="24.75,581.65 23.39,581.84 22.42,582.42 21.84,583.39 21.65,584.75"/>
    </edge>
    <edge id=":0/7_5" function="internal">
        <lane id=":0/7_5_0" index="0" speed="13.90" length="9.50" shape="24.75,581.65 15.25,581.65"/>
    </edge>
    <edge id=":0/7_6" function="internal">
        <lane id=":0/7_6_0" index="0" speed="13.90" length="10.32" shape="24.75,581.65 21.95,581.25 19.95,580.05 18.75,578.05 18.35,575.25"/>
    </edge>
    <edge id=":0/7_7" function="internal">
        <lane id=":0/7_7_0" index="0" speed="13.90" length="4.82" shape="24.75,581.65 23.51,580.82 23.10,580.00 23.51,579.18 24.75,578.35"/>
    </edge>
    <edge id=":0/7_8" function="internal">
        <lane id=":0/7_8_0" index="0" speed="13.90" length="5.00" shape="21.65,575.25 21.84,576.61 22.42,577.58 23.39,578.16 24.75,578.35"/>
    </edge>
    <edge id=":0/7_9" function="internal">
        <lane id=":0/7_9_0" index="0" speed="13.90" length="9.50" shape="21.65,575.25 21.65,584.75"/>
    </edge>
    <edge id=":0/7_10" function="internal">
        <lane id=":0/7_10_0" index="0" speed="13.90" length="5.28" shape="21.65,575.25 21.25,578.05 20.05,580.05 19.95,580.11"/>
    </edge>
    <edge id=":0/7_11" function="internal">
        <lane id=":0/7_11_0" index="0" speed="13.90" length="2.41" shape="21.65,575.25 20.83,576.49 20.00,576.90"/>
    </edge>
    <edge id=":0/7_18" function="internal">
        <lane id=":0/7_18_0" index="0" speed="13.90" length="5.04" shape="19.95,580.11 18.05,581.25 15.25,581.65"/>
    </edge>
    <edge id=":0/7_19" function="internal">
        <lane id=":0/7_19_0" index="0" speed="13.90" length="2.41" shape="20.00,576.90 19.18,576.49 18.35,575.25"/>
    </edge>
    <edge id=":0/7_12" function="internal">
        <lane id=":0/7_12_0" index="0" speed="13.90" length="5.00" shape="15.25,578.35 16.61,578.16 17.57,577.58 18.16,576.61 18.35,575.25"/>
    </edge>
    <edge id=":0/7_13" function="internal">
        <lane id=":0/7_13_0" index="0" speed="13.90" length="9.50" shape="15.25,578.35 24.75,578.35"/>
    </edge>
    <edge id=":0/7_14" function="internal">
        <lane id=":0/7_14_0" index="0" speed="13.90" length="10.32" shape="15.25,578.35 18.05,578.75 20.05,579.95 21.25,581.95 21.65,584.75"/>
    </edge>
    <edge id=":0/7_15" function="internal">
        <lane id=":0/7_15_0" index="0" speed="13.90" length="4.82" shape="15.25,578.35 16.49,579.18 16.90,580.00 16.49,580.82 15.25,581.65"/>
    </edge>
    <edge id=":0/8_0" function="internal">
        <lane id=":0/8_0_0" index="0" speed="13.90" length="5.00" shape="18.35,664.75 18.16,663.39 17.58,662.42 16.61,661.84 15.25,661.65"/>
    </edge>
    <edge id=":0/8_1" function="internal">
        <lane id=":0/8_1_0" index="0" speed="13.90" length="9.50" shape="18.35,664.75 18.35,655.25"/>