<configuration>
  <input>
    <net-file value="manhattan.net.xml"/>
    <route-files value="manhattan.rou.xml"/>
  </input>
  <time>
    <begin value="0"/>
    <end value="3600"/>
    <step-length value="0.01"/>
  </time>
  <gui_only>
    <gui-settings-file value="manhattan.gui-settings.xml"/>
  </gui_only>
</configuration>