<?xml version="1.0" encoding="UTF-8"?>

<!-- generated on 06/12/17 16:10:33 by SUMO duarouter Version 0.29.0
<?xml version="1.0" encoding="UTF-8"?>

<configuration xmlns:xsi="http://www.w3.org/2001/XMLSchema-instance" xsi:noNamespaceSchemaLocation="http://sumo.dlr.de/xsd/duarouterConfiguration.xsd">

    <input>
        <net-file value="C:/Users/Jacob/src/sumo-0.29.0/tools/grid/grid.net.xml"/>
        <trip-files value="C:/Users/Jacob/src/sumo-0.29.0/tools/grid/trips.trips.xml"/>
    </input>

    <output>
        <output-file value="grid/grid.rou.xml"/>
    </output>

</configuration>
-->

<routes xmlns:xsi="http://www.w3.org/2001/XMLSchema-instance" xsi:noNamespaceSchemaLocation="http://sumo.dlr.de/xsd/routes_file.xsd">
    <vehicle id="0" depart="0.00">
        <route edges="6/5to5/5 5/5to5/6 5/6to5/7 5/7to5/8 5/8to5/9 5/9to5/10 5/10to5/11 5/11to5/12 5/12to5/13 5/13to5/14 5/14to5/15 5/15to5/16 5/16to6/16"/>
    </vehicle>
    <vehicle id="1" depart="3.00">
        <route edges="2/2to1/2 1/2to1/3 1/3to1/4 1/4to1/5 1/5to1/6 1/6to2/6 2/6to3/6 3/6to4/6 4/6to5/6 5/6to6/6 6/6to6/7 6/7to6/8 6/8to6/7"/>
    </vehicle>
    <vehicle id="2" depart="6.00">
        <route edges="5/1to5/2 5/2to5/3 5/3to5/4 5/4to5/5 5/5to5/6 5/6to5/7 5/7to5/8 5/8to5/9 5/9to4/9 4/9to3/9 3/9to2/9 2/9to1/9 1/9to1/10 1/10to1/11 1/11to1/12 1/12to1/13 1/13to1/14 1/14to1/15 1/15to1/16 1/16to1/17 1/17to1/18 1/18to1/19 1/19to2/19"/>
    </vehicle>
    <vehicle id="3" depart="9.00">
        <route edges="8/13to8/12 8/12to8/13 8/13to8/14 8/14to8/15 8/15to8/16 8/16to8/17 8/17to9/17 9/17to9/18"/>
    </vehicle>
    <vehicle id="4" depart="12.00">
        <route edges="8/6to9/6 9/6to9/5 9/5to9/4 9/4to9/3 9/3to9/2 9/2to9/1 9/1to8/1 8/1to7/1 7/1to7/2"/>
    </vehicle>
    <vehicle id="5" depart="15.00">
        <route edges="8/6to9/6 9/6to9/7 9/7to9/6"/>
    </vehicle>
    <vehicle id="6" depart="18.00">
        <route edges="4/14to4/15 4/15to4/16 4/16to4/17 4/17to4/18 4/18to3/18 3/18to2/18 2/18to1/18 1/18to1/17"/>
    </vehicle>
    <vehicle id="7" depart="21.00">
        <route edges="8/14to9/14 9/14to9/13 9/13to9/12 9/12to9/11 9/11to9/10 9/10to9/9 9/9to9/8 9/8to9/7 9/7to9/6 9/6to9/5 9/5to9/4 9/4to8/4 8/4to7/4 7/4to7/3 7/3to7/2 7/2to7/1 7/1to7/2"/>
    </vehicle>
    <vehicle id="8" depart="24.00">
        <route edges="6/15to6/16 6/16to6/15 6/15to6/14 6/14to6/13 6/13to7/13"/>
    </vehicle>
    <vehicle id="9" depart="27.00">
        <route edges="2/18to1/18 1/18to2/18 2/18to3/18 3/18to4/18 4/18to5/18 5/18to6/18 6/18to7/18 7/18to6/18"/>
    </vehicle>
    <vehicle id="10" depart="30.00">
        <route edges="3/5to2/5 2/5to2/6 2/6to2/7 2/7to2/8 2/8to2/9 2/9to2/10 2/10to2/11 2/11to2/12 2/12to2/13 2/13to2/14 2/14to2/15 2/15to3/15 3/15to4/15 4/15to4/16 4/16to4/17 4/17to4/18 4/18to3/18"/>
    </vehicle>
    <vehicle id="11" depart="33.00">
        <route edges="5/19to5/18 5/18to5/17 5/17to5/16 5/16to5/15 5/15to5/14 5/14to5/13 5/13to5/12 5/12to5/11 5/11to5/10 5/10to5/9 5/9to5/8 5/8to5/7 5/7to5/6 5/6to5/5 5/5to5/4 5/4to5/3 5/3to4/3 4/3to3/3 3/3to3/2 3/2to4/2"/>
    </vehicle>
    <vehicle id="12" depart="36.00">
        <route edges="9/19to8/19 8/19to8/18 8/18to7/18 7/18to6/18 6/18to5/18 5/18to4/18 4/18to3/18 3/18to3/17 3/17to3/16 3/16to3/15 3/15to3/14 3/14to3/13 3/13to2/13 2/13to2/12"/>
    </vehicle>
    <vehicle id="13" depart="39.00">
        <route edges="8/11to8/12 8/12to8/13 8/13to8/14 8/14to8/15 8/15to8/16 8/16to8/17 8/17to7/17 7/17to6/17 6/17to5/17 5/17to4/17 4/17to3/17"/>
    </vehicle>
    <vehicle id="14" depart="42.00">
        <route edges="7/18to8/18 8/18to8/17 8/17to8/16 8/16to7/16 7/16to6/16 6/16to5/16 5/16to4/16 4/16to3/16 3/16to3/15"/>
    </vehicle>
    <vehicle id="15" depart="45.00">
        <route edges="1/16to0/16 0/16to0/15 0/15to0/14 0/14to1/14 1/14to2/14 2/14to3/14 3/14to4/14 4/14to5/14 5/14to6/14 6/14to6/13 6/13to6/12 6/12to6/11 6/11to6/10 6/10to7/10 7/10to8/10 8/10to8/9"/>
    </vehicle>
    <vehicle id="16" depart="48.00">
        <route edges="0/9to0/10 0/10to1/10 1/10to2/10 2/10to3/10"/>
    </vehicle>
    <vehicle id="17" depart="51.00">
        <route edges="1/17to1/18 1/18to1/17 1/17to1/16 1/16to1/15 1/15to1/14 1/14to1/13 1/13to1/12 1/12to1/11 1/11to1/10 1/10to1/9 1/9to2/9 2/9to3/9 3/9to4/9 4/9to4/8 4/8to4/7 4/7to3/7"/>
    </vehicle>
    <vehicle id="18" depart="54.00">
        <route edges="5/15to5/14 5/14to5/13 5/13to6/13 6/13to7/13 7/13to6/13"/>
    </vehicle>
    <vehicle id="19" depart="57.00">
        <route edges="2/19to2/18 2/18to2/17 2/17to2/16 2/16to2/15 2/15to2/14 2/14to2/13 2/13to2/12 2/12to2/11 2/11to3/11 3/11to4/11 4/11to5/11 5/11to5/12"/>
    </vehicle>
    <vehicle id="20" depart="60.00">
        <route edges="4/9to5/9 5/9to5/8 5/8to4/8 4/8to3/8 3/8to2/8 2/8to1/8 1/8to0/8 0/8to0/9"/>
    </vehicle>
    <vehicle id="21" depart="63.00">
        <route edges="1/14to2/14 2/14to2/13 2/13to2/12 2/12to3/12 3/12to4/12 4/12to5/12 5/12to6/12 6/12to7/12 7/12to8/12 8/12to8/11 8/11to8/10 8/10to8/9 8/9to8/8 8/8to8/7 8/7to8/6 8/6to8/5 8/5to8/4 8/4to8/3 8/3to8/2 8/2to8/1 8/1to8/0"/>
    </vehicle>
    <vehicle id="22" depart="66.00">
        <route edges="4/4to3/4 3/4to3/5 3/5to3/6 3/6to3/7 3/7to3/8 3/8to3/9 3/9to3/10 3/10to3/11 3/11to3/12 3/12to3/13 3/13to3/14 3/14to2/14 2/14to1/14 1/14to1/15 1/15to1/16 1/16to1/17 1/17to1/16"/>
    </vehicle>
    <vehicle id="23" depart="69.00">
        <route edges="4/11to4/12 4/12to5/12 5/12to6/12 6/12to7/12 7/12to6/12"/>
    </vehicle>
    <vehicle id="24" depart="72.00">
        <route edges="8/12to8/13 8/13to8/14 8/14to8/15 8/15to8/16 8/16to8/17 8/17to8/18 8/18to7/18 7/18to6/18 6/18to5/18 5/18to6/18"/>
    </vehicle>
    <vehicle id="25" depart="75.00">
        <route edges="2/9to2/8 2/8to2/7 2/7to2/6 2/6to2/5 2/5to3/5 3/5to4/5 4/5to5/5 5/5to6/5 6/5to7/5 7/5to8/5 8/5to8/4 8/4to7/4"/>
    </vehicle>
    <vehicle id="26" depart="78.00">
        <route edges="4/5to5/5 5/5to5/6 5/6to5/7 5/7to4/7 4/7to3/7"/>
    </vehicle>
    <vehicle id="27" depart="81.00">
        <route edges="7/6to7/5 7/5to7/6 7/6to6/6 6/6to5/6 5/6to4/6 4/6to3/6 3/6to2/6 2/6to1/6 1/6to0/6 0/6to0/7 0/7to0/8 0/8to0/9 0/9to0/10 0/10to0/11 0/11to0/12 0/12to0/13 0/13to0/14 0/14to0/15 0/15to0/16"/>
    </vehicle>
    <vehicle id="28" depart="84.00">
        <route edges="2/3to2/2 2/2to2/1 2/1to2/0 2/0to3/0 3/0to4/0 4/0to5/0 5/0to6/0 6/0to7/0 7/0to8/0 8/0to9/0 9/0to8/0"/>
    </vehicle>
    <vehicle id="29" depart="87.00">
        <route edges="4/13to4/14 4/14to4/13 4/13to4/12 4/12to4/11 4/11to4/10 4/10to4/9 4/9to4/8 4/8to4/7 4/7to4/6 4/6to4/5 4/5to4/4 4/4to4/3 4/3to4/2 4/2to4/1 4/1to4/0 4/0to5/0"/>
    </vehicle>
    <vehicle id="30" depart="90.00">
        <route edges="0/10to0/11 0/11to0/10 0/10to1/10 1/10to2/10 2/10to3/10 3/10to4/10 4/10to5/10"/>
    </vehicle>
    <vehicle id="31" depart="93.00">
        <route edges="4/18to4/17 4/17to4/16 4/16to4/15 4/15to4/14 4/14to4/13 4/13to4/12 4/12to4/11 4/11to4/12"/>
    </vehicle>
    <vehicle id="32" depart="96.00">
        <route edges="6/14to5/14 5/14to5/13 5/13to5/12 5/12to5/11 5/11to5/10 5/10to5/9 5/9to5/8 5/8to5/7 5/7to5/6 5/6to5/5 5/5to5/4 5/4to6/4 6/4to7/4 7/4to7/3"/>
    </vehicle>
    <vehicle id="33" depart="99.00">
        <route edges="5/15to4/15 4/15to4/14 4/14to4/13 4/13to4/12 4/12to4/11 4/11to4/10 4/10to4/9 4/9to4/8 4/8to5/8 5/8to5/7"/>
    </vehicle>
    <vehicle id="34" depart="102.00">
        <route edges="4/14to4/15 4/15to4/14 4/14to4/13 4/13to4/12 4/12to4/11 4/11to5/11 5/11to6/11 6/11to7/11 7/11to8/11 8/11to8/10"/>
    </vehicle>
    <vehicle id="35" depart="105.00">
        <route edges="8/3to7/3 7/3to7/4 7/4to7/5 7/5to8/5 8/5to9/5 9/5to9/4"/>
    </vehicle>
    <vehicle id="36" depart="108.00">
        <route edges="6/12to6/13 6/13to6/12 6/12to6/11 6/11to6/10 6/10to6/9 6/9to6/8 6/8to6/7 6/7to6/6 6/6to6/5 6/5to6/4 6/4to7/4 7/4to8/4 8/4to7/4"/>
    </vehicle>
    <vehicle id="37" depart="111.00">
        <route edges="5/13to6/13 6/13to6/12 6/12to6/11 6/11to5/11 5/11to4/11 4/11to3/11 3/11to2/11 2/11to1/11 1/11to0/11 0/11to0/10 0/10to0/9 0/9to0/8 0/8to0/7 0/7to0/6 0/6to0/7"/>
    </vehicle>
    <vehicle id="38" depart="114.00">
        <route edges="0/10to0/11 0/11to0/10 0/10to0/9 0/9to0/8 0/8to0/7 0/7to0/6 0/6to0/5 0/5to0/4 0/4to1/4 1/4to2/4 2/4to3/4 3/4to4/4 4/4to4/3"/>
    </vehicle>
    <vehicle id="39" depart="117.00">
        <route edges="6/11to7/11 7/11to7/10 7/10to7/9 7/9to7/8 7/8to7/7 7/7to7/6 7/6to7/5 7/5to7/4 7/4to7/3 7/3to7/2 7/2to8/2 8/2to9/2 9/2to8/2"/>
    </vehicle>
    <vehicle id="40" depart="120.00">
        <route edges="5/16to4/16 4/16to4/15 4/15to4/14 4/14to4/13 4/13to4/12 4/12to5/12 5/12to6/12 6/12to7/12 7/12to8/12 8/12to9/12 9/12to9/11 9/11to9/10 9/10to9/9 9/9to9/8 9/8to9/7 9/7to9/6 9/6to9/5 9/5to9/4 9/4to9/3 9/3to9/2 9/2to9/1"/>
    </vehicle>
    <vehicle id="41" depart="123.00">
        <route edges="1/13to2/13 2/13to2/12 2/12to2/11 2/11to2/10 2/10to2/9 2/9to2/8 2/8to1/8 1/8to0/8 0/8to0/7"/>
    </vehicle>
    <vehicle id="42" depart="126.00">
        <route edges="4/19to3/19 3/19to3/18 3/18to3/17 3/17to3/16 3/16to3/15 3/15to3/14 3/14to2/14 2/14to1/14 1/14to0/14"/>
    </vehicle>
    <vehicle id="43" depart="129.00">
        <route edges="7/4to6/4 6/4to6/5 6/5to6/6 6/6to6/7 6/7to6/8 6/8to6/9 6/9to6/10 6/10to6/11 6/11to6/12 6/12to6/13 6/13to6/14 6/14to5/14 5/14to4/14 4/14to4/15 4/15to4/14"/>
    </vehicle>
    <vehicle id="44" depart="132.00">
        <route edges="3/8to3/7 3/7to3/8 3/8to3/9 3/9to3/10 3/10to4/10 4/10to5/10 5/10to6/10 6/10to7/10 7/10to6/10"/>
    </vehicle>
    <vehicle id="45" depart="135.00">
        <route edges="3/2to3/1 3/1to3/2 3/2to3/3 3/3to3/4 3/4to3/5 3/5to3/6 3/6to3/7 3/7to3/8 3/8to4/8 4/8to5/8 5/8to6/8 6/8to7/8 7/8to7/9 7/9to7/10 7/10to8/10"/>
    </vehicle>
    <vehicle id="46" depart="138.00">
        <route edges="0/6to1/6 1/6to1/5 1/5to1/4 1/4to2/4 2/4to3/4 3/4to4/4 4/4to5/4 5/4to6/4 6/4to6/5"/>
    </vehicle>
    <vehicle id="47" depart="141.00">
        <route edges="7/16to7/15 7/15to6/15 6/15to5/15 5/15to4/15 4/15to3/15 3/15to3/14"/>
    </vehicle>
    <vehicle id="48" depart="144.00">
        <route edges="5/7to5/6 5/6to5/5 5/5to6/5 6/5to7/5 7/5to8/5 8/5to9/5 9/5to9/4"/>
    </vehicle>
    <vehicle id="49" depart="147.00">
        <route edges="0/5to0/4 0/4to0/5 0/5to1/5 1/5to2/5 2/5to3/5 3/5to3/6"/>
    </vehicle>
    <vehicle id="50" depart="150.00">
        <route edges="8/6to8/7 8/7to8/6 8/6to8/5 8/5to8/4 8/4to7/4 7/4to6/4 6/4to7/4"/>
    </vehicle>
    <vehicle id="51" depart="153.00">
        <route edges="5/10to4/10 4/10to4/9 4/9to4/8 4/8to4/7 4/7to4/6 4/6to4/5 4/5to4/4 4/4to5/4 5/4to6/4 6/4to7/4 7/4to8/4 8/4to7/4"/>
    </vehicle>
    <vehicle id="52" depart="156.00">
        <route edges="9/6to8/6 8/6to8/7 8/7to8/8 8/8to8/9 8/9to8/10 8/10to9/10 9/10to8/10"/>
    </vehicle>
    <vehicle id="53" depart="159.00">
        <route edges="0/14to0/13 0/13to0/14 0/14to0/15 0/15to0/16 0/16to0/15"/>
    </vehicle>
    <vehicle id="54" depart="162.00">
        <route edges="1/1to1/2 1/2to2/2 2/2to3/2 3/2to3/1"/>
    </vehicle>
    <vehicle id="55" depart="165.00">
        <route edges="6/11to6/12 6/12to6/11 6/11to6/10 6/10to6/9 6/9to6/8 6/8to5/8 5/8to4/8 4/8to3/8"/>
    </vehicle>
    <vehicle id="56" depart="168.00">
        <route edges="1/4to1/3 1/3to1/4 1/4to2/4 2/4to3/4 3/4to4/4 4/4to5/4 5/4to6/4 6/4to7/4 7/4to8/4 8/4to8/5 8/5to8/6 8/6to8/7 8/7to8/8 8/8to8/9 8/9to8/10 8/10to8/11 8/11to8/12 8/12to8/13 8/13to8/14"/>
    </vehicle>
    <vehicle id="57" depart="171.00">
        <route edges="5/14to6/14 6/14to6/13 6/13to5/13 5/13to4/13 4/13to3/13 3/13to2/13"/>
    </vehicle>
    <vehicle id="58" depart="174.00">
        <route edges="6/6to6/7 6/7to6/6 6/6to5/6 5/6to4/6 4/6to3/6 3/6to2/6 2/6to1/6 1/6to0/6 0/6to0/5"/>
    </vehicle>
    <vehicle id="59" depart="177.00">
        <route edges="3/5to3/4 3/4to3/5 3/5to3/6 3/6to3/7 3/7to3/8 3/8to3/9 3/9to3/10 3/10to3/11 3/11to4/11 4/11to4/10"/>
    </vehicle>
    <vehicle id="60" depart="180.00">
        <route edges="4/11to5/11 5/11to5/10 5/10to6/10 6/10to7/10 7/10to8/10 8/10to9/10 9/10to8/10"/>
    </vehicle>
    <vehicle id="61" depart="183.00">
        <route edges="5/18to5/19 5/19to5/18 5/18to5/17 5/17to5/16 5/16to6/16 6/16to7/16 7/16to8/16"/>
    </vehicle>
    <vehicle id="62" depart="186.00">
        <route edges="5/7to5/6 5/6to5/7 5/7to5/8 5/8to5/9 5/9to5/10 5/10to5/11 5/11to5/12 5/12to5/13 5/13to5/14 5/14to5/15 5/15to5/16 5/16to5/17 5/17to5/18 5/18to4/18 4/18to4/19"/>
    </vehicle>
    <vehicle id="63" depart="189.00">
        <route edges="7/9to6/9 6/9to6/10 6/10to6/11 6/11to6/12 6/12to6/13 6/13to6/14 6/14to6/15 6/15to5/15 5/15to4/15 4/15to3/15 3/15to2/15 2/15to2/16 2/16to3/16"/>
    </vehicle>
    <vehicle id="64" depart="192.00">
        <route edges="8/19to9/19 9/19to9/18 9/18to8/18 8/18to7/18 7/18to6/18 6/18to5/18 5/18to4/18 4/18to3/18 3/18to3/17 3/17to3/16 3/16to3/15 3/15to3/14 3/14to3/13 3/13to3/12 3/12to2/12 2/12to1/12 1/12to0/12 0/12to0/13"/>
    </vehicle>
    <vehicle id="65" depart="195.00">
        <route edges="1/9to2/9 2/9to2/10 2/10to2/11 2/11to2/12 2/12to2/13 2/13to2/14 2/14to2/15 2/15to2/16 2/16to2/17 2/17to2/18 2/18to1/18 1/18to1/19"/>
    </vehicle>
    <vehicle id="66" depart="198.00">
        <route edges="4/14to3/14 3/14to3/13 3/13to3/12 3/12to3/11 3/11to3/10 3/10to3/9"/>
    </vehicle>
    <vehicle id="67" depart="201.00">
        <route edges="4/17to4/18 4/18to4/17 4/17to4/16 4/16to4/15 4/15to4/14 4/14to4/13 4/13to5/13 5/13to6/13 6/13to7/13 7/13to8/13 8/13to7/13"/>
    </vehicle>
    <vehicle id="68" depart="204.00">
        <route edges="1/0to0/0 0/0to0/1 0/1to0/2 0/2to0/3 0/3to0/4 0/4to0/5 0/5to0/6 0/6to0/7 0/7to1/7 1/7to2/7 2/7to3/7 3/7to3/8 3/8to4/8"/>
    </vehicle>
    <vehicle id="69" depart="207.00">
        <route edges="6/1to6/0 6/0to6/1 6/1to6/2 6/2to6/3 6/3to5/3 5/3to4/3 4/3to3/3 3/3to4/3"/>
    </vehicle>
    <vehicle id="70" depart="210.00">
        <route edges="6/5to5/5 5/5to5/6 5/6to5/7 5/7to5/8 5/8to5/9 5/9to5/10 5/10to6/10"/>
    </vehicle>
    <vehicle id="71" depart="213.00">
        <route edges="7/13to8/13 8/13to8/12 8/12to8/11 8/11to7/11 7/11to6/11 6/11to5/11 5/11to4/11 4/11to3/11 3/11to2/11 2/11to2/10 2/10to2/9 2/9to2/8 2/8to2/9"/>
    </vehicle>
    <vehicle id="72" depart="216.00">
        <route edges="0/7to1/7 1/7to1/8 1/8to1/9 1/9to1/10 1/10to1/11 1/11to1/12 1/12to1/13 1/13to1/14 1/14to1/15 1/15to2/15 2/15to3/15 3/15to4/15 4/15to4/16 4/16to4/17 4/17to4/18 4/18to4/17"/>
    </vehicle>
    <vehicle id="73" depart="219.00">
        <route edges="3/16to2/16 2/16to2/15 2/15to2/14 2/14to2/13 2/13to2/12 2/12to2/11 2/11to2/10 2/10to2/9 2/9to2/8 2/8to2/7 2/7to2/6 2/6to3/6 3/6to4/6 4/6to4/5 4/5to4/4 4/4to4/3 4/3to4/2 4/2to3/2"/>
    </vehicle>
    <vehicle id="74" depart="222.00">
        <route edges="5/12to6/12 6/12to6/13 6/13to6/14 6/14to5/14 5/14to4/14 4/14to3/14 3/14to2/14 2/14to1/14"/>
    </vehicle>
    <vehicle id="75" depart="225.00">
        <route edges="2/18to1/18 1/18to1/17 1/17to1/16 1/16to1/15 1/15to1/14 1/14to1/13 1/13to1/12 1/12to2/12 2/12to3/12 3/12to4/12 4/12to5/12 5/12to5/11 5/11to5/10 5/10to5/9 5/9to5/8 5/8to6/8"/>
    </vehicle>
    <vehicle id="76" depart="228.00">
        <route edges="4/11to3/11 3/11to3/12 3/12to3/13 3/13to3/14 3/14to3/15 3/15to3/16 3/16to2/16 2/16to2/17"/>
    </vehicle>
    <vehicle id="77" depart="231.00">
        <route edges="0/15to1/15 1/15to1/14 1/14to1/13 1/13to2/13 2/13to3/13 3/13to4/13 4/13to5/13 5/13to6/13 6/13to7/13 7/13to8/13 8/13to8/14"/>
    </vehicle>
    <vehicle id="78" depart="234.00">
        <route edges="5/1to5/2 5/2to6/2 6/2to7/2 7/2to8/2 8/2to8/1"/>
    </vehicle>
    <vehicle id="79" depart="237.00">
        <route edges="3/14to4/14 4/14to4/13 4/13to4/12 4/12to4/11 4/11to5/11 5/11to6/11 6/11to7/11 7/11to8/11 8/11to8/12"/>
    </vehicle>
    <vehicle id="80" depart="240.00">
        <route edges="6/1to6/2 6/2to6/3 6/3to6/4 6/4to6/5 6/5to6/6 6/6to6/7 6/7to6/8 6/8to6/9 6/9to6/10 6/10to6/11 6/11to6/12 6/12to5/12"/>
    </vehicle>
    <vehicle id="81" depart="243.00">
        <route edges="1/9to0/9 0/9to0/8 0/8to0/7 0/7to0/6 0/6to0/5 0/5to1/5 1/5to2/5 2/5to3/5 3/5to4/5 4/5to5/5 5/5to5/4 5/4to5/3 5/3to5/2 5/2to5/1 5/1to5/0 5/0to6/0"/>
    </vehicle>
    <vehicle id="82" depart="246.00">
        <route edges="2/1to2/0 2/0to2/1 2/1to2/2 2/2to2/3 2/3to2/4 2/4to2/5 2/5to2/6 2/6to2/7 2/7to2/8 2/8to2/9 2/9to2/10 2/10to2/11 2/11to2/12 2/12to2/13 2/13to2/14 2/14to2/15 2/15to3/15 3/15to4/15 4/15to4/16 4/16to4/17 4/17to4/18"/>
    </vehicle>
    <vehicle id="83" depart="249.00">
        <route edges="3/6to4/6 4/6to4/7 4/7to4/8 4/8to4/9 4/9to4/10 4/10to4/11 4/11to5/11 5/11to5/12"/>
    </vehicle>
    <vehicle id="84" depart="252.00">
        <route edges="9/18to8/18 8/18to8/17 8/17to8/16 8/16to7/16 7/16to6/16 6/16to5/16 5/16to4/16 4/16to3/16 3/16to2/16 2/16to2/15 2/15to2/14 2/14to2/13 2/13to2/12 2/12to2/11 2/11to2/10 2/10to2/9 2/9to2/8 2/8to2/7 2/7to2/6 2/6to2/5 2/5to2/4 2/4to1/4"/>
    </vehicle>
    <vehicle id="85" depart="255.00">
        <route edges="0/11to0/10 0/10to0/11 0/11to0/12 0/12to0/13 0/13to1/13 1/13to2/13 2/13to3/13 3/13to4/13 4/13to5/13"/>
    </vehicle>
    <vehicle id="86" depart="258.00">
        <route edges="3/9to4/9 4/9to4/8 4/8to4/7 4/7to4/6 4/6to4/5 4/5to4/4 4/4to4/3 4/3to4/2 4/2to4/1 4/1to5/1 5/1to5/0"/>
    </vehicle>
    <vehicle id="87" depart="261.00">
        <route edges="3/5to2/5 2/5to2/6 2/6to2/7 2/7to2/8 2/8to2/9 2/9to2/10 2/10to2/11 2/11to3/11 3/11to4/11 4/11to5/11 5/11to6/11 6/11to6/12 6/12to6/13 6/13to6/14 6/14to6/15 6/15to6/16 6/16to6/17 6/17to6/18 6/18to5/18"/>
    </vehicle>
    <vehicle id="88" depart="264.00">
        <route edges="8/6to9/6 9/6to9/5 9/5to9/4 9/4to8/4 8/4to7/4 7/4to6/4 6/4to5/4"/>
    </vehicle>
    <vehicle id="89" depart="267.00">
        <route edges="2/4to1/4 1/4to1/5 1/5to1/6 1/6to1/7 1/7to1/8 1/8to1/9 1/9to2/9"/>
    </vehicle>
    <vehicle id="90" depart="270.00">
        <route edges="8/4to8/3 8/3to8/4 8/4to8/5 8/5to8/6 8/6to8/7 8/7to8/8 8/8to8/9 8/9to8/10 8/10to8/11 8/11to8/12 8/12to8/13 8/13to8/14 8/14to8/15 8/15to8/16 8/16to8/17 8/17to8/18 8/18to7/18 7/18to7/19"/>
    </vehicle>
    <vehicle id="91" depart="273.00">
        <route edges="5/16to5/17 5/17to5/16 5/16to5/15 5/15to5/14 5/14to4/14 4/14to5/14"/>
    </vehicle>
    <vehicle id="92" depart="276.00">
        <route edges="9/1to9/2 9/2to9/3 9/3to9/4 9/4to9/5 9/5to8/5 8/5to7/5 7/5to6/5 6/5to5/5 5/5to4/5 4/5to3/5 3/5to3/6 3/6to3/7 3/7to3/8 3/8to3/9 3/9to3/10 3/10to3/11 3/11to3/12 3/12to3/13 3/13to3/14 3/14to3/15 3/15to3/16 3/16to3/17 3/17to3/18 3/18to2/18"/>
    </vehicle>
    <vehicle id="93" depart="279.00">
        <route edges="9/7to9/6 9/6to9/5 9/5to9/4 9/4to9/3 9/3to8/3 8/3to7/3 7/3to7/4"/>
    </vehicle>
    <vehicle id="94" depart="282.00">
        <route edges="7/1to6/1 6/1to6/2 6/2to6/3 6/3to6/4 6/4to6/5 6/5to6/6 6/6to6/7 6/7to5/7 5/7to4/7 4/7to3/7 3/7to2/7 2/7to2/8 2/8to2/9 2/9to2/10 2/10to2/11 2/11to2/12 2/12to2/13 2/13to2/14 2/14to2/15 2/15to2/16 2/16to2/17 2/17to1/17"/>
    </vehicle>
    <vehicle id="95" depart="285.00">
        <route edges="1/7to2/7 2/7to2/6 2/6to2/5 2/5to3/5 3/5to4/5 4/5to5/5 5/5to6/5 6/5to7/5 7/5to8/5 8/5to7/5"/>
    </vehicle>
    <vehicle id="96" depart="288.00">
        <route edges="9/12to9/11 9/11to9/12 9/12to9/13 9/13to8/13 8/13to7/13 7/13to6/13 6/13to5/13 5/13to5/14"/>
    </vehicle>
    <vehicle id="97" depart="291.00">
        <route edges="5/1to5/0 5/0to5/1 5/1to5/2 5/2to5/3 5/3to5/4 5/4to5/5 5/5to5/6 5/6to5/7 5/7to5/8 5/8to5/9 5/9to4/9 4/9to3/9 3/9to2/9 2/9to2/10 2/10to1/10"/>
    </vehicle>
    <vehicle id="98" depart="294.00">
        <route edges="2/1to2/2 2/2to2/3 2/3to2/4 2/4to2/5 2/5to2/6 2/6to3/6 3/6to4/6 4/6to5/6 5/6to6/6 6/6to5/6"/>
    </vehicle>
    <vehicle id="99" depart="297.00">
        <route edges="6/14to7/14 7/14to7/15 7/15to7/16 7/16to6/16 6/16to6/17"/>
    </vehicle>
    <vehicle id="100" depart="300.00">
        <route edges="5/14to5/15 5/15to5/16 5/16to5/17 5/17to5/18 5/18to5/19 5/19to6/19 6/19to7/19 7/19to8/19"/>
    </vehicle>
    <vehicle id="101" depart="303.00">
        <route edges="5/9to4/9 4/9to4/10 4/10to4/11 4/11to4/12 4/12to4/13 4/13to3/13 3/13to2/13 2/13to1/13 1/13to0/13 0/13to1/13"/>
    </vehicle>
    <vehicle id="102" depart="306.00">
        <route edges="6/18to7/18 7/18to7/17 7/17to7/16 7/16to7/15 7/15to7/14 7/14to7/13 7/13to7/12 7/12to7/11 7/11to7/10 7/10to7/9 7/9to7/8 7/8to7/7 7/7to7/6 7/6to7/5 7/5to7/4 7/4to8/4"/>
    </vehicle>
    <vehicle id="103" depart="309.00">
        <route edges="2/4to2/5 2/5to2/6 2/6to2/7 2/7to1/7 1/7to1/6"/>
    </vehicle>
    <vehicle id="104" depart="312.00">
        <route edges="2/14to3/14 3/14to3/13 3/13to3/12 3/12to4/12 4/12to5/12 5/12to6/12 6/12to7/12 7/12to8/12 8/12to9/12 9/12to9/11 9/11to9/10 9/10to9/9 9/9to9/8 9/8to9/7 9/7to9/6 9/6to9/5 9/5to9/4"/>
    </vehicle>
    <vehicle id="105" depart="315.00">
        <route edges="4/18to4/19 4/19to4/18 4/18to4/17 4/17to4/16 4/16to4/15 4/15to4/14 4/14to4/13 4/13to4/12 4/12to4/11 4/11to4/10 4/10to4/9 4/9to4/8 4/8to4/7 4/7to4/6 4/6to4/5 4/5to4/4 4/4to4/3 4/3to4/2 4/2to3/2 3/2to3/3"/>
    </vehicle>
    <vehicle id="106" depart="318.00">
        <route edges="4/3to4/2 4/2to4/3 4/3to4/4 4/4to4/5 4/5to5/5 5/5to6/5 6/5to6/4"/>
    </vehicle>
    <vehicle id="107" depart="321.00">
        <route edges="1/1to1/2 1/2to1/3 1/3to1/4 1/4to1/5 1/5to2/5 2/5to3/5 3/5to4/5 4/5to5/5 5/5to6/5 6/5to7/5 7/5to7/6 7/6to7/7 7/7to7/8 7/8to7/9 7/9to7/10 7/10to7/11 7/11to7/12 7/12to7/13 7/13to7/14 7/14to7/15 7/15to7/16 7/16to7/17 7/17to7/16"/>
    </vehicle>
    <vehicle id="108" depart="324.00">
        <route edges="4/3to4/2 4/2to4/1 4/1to4/0 4/0to5/0 5/0to6/0 6/0to7/0 7/0to8/0 8/0to8/1"/>
    </vehicle>
    <vehicle id="109" depart="327.00">
        <route edges="9/14to9/15 9/15to9/14 9/14to9/13 9/13to9/12 9/12to8/12 8/12to7/12 7/12to6/12 6/12to6/11"/>
    </vehicle>
    <vehicle id="110" depart="330.00">
        <route edges="9/0to9/1 9/1to8/1 8/1to7/1 7/1to6/1 6/1to5/1 5/1to4/1 4/1to3/1 3/1to3/2 3/2to3/3 3/3to3/4 3/4to4/4"/>
    </vehicle>
    <vehicle id="111" depart="333.00">
        <route edges="6/19to5/19 5/19to5/18 5/18to5/17 5/17to5/16 5/16to5/15 5/15to4/15 4/15to3/15 3/15to2/15 2/15to1/15 1/15to0/15 0/15to0/14 0/14to0/13 0/13to0/12 0/12to0/11 0/11to0/10 0/10to0/9 0/9to0/8 0/8to0/7 0/7to0/6 0/6to0/5 0/5to0/4 0/4to0/3 0/3to0/2 0/2to0/1 0/1to1/1"/>
    </vehicle>
    <vehicle id="112" depart="336.00">
        <route edges="4/10to3/10 3/10to3/9 3/9to3/8 3/8to3/7 3/7to3/6 3/6to4/6 4/6to5/6 5/6to6/6 6/6to7/6 7/6to8/6 8/6to8/5 8/5to8/4 8/4to8/3 8/3to8/2 8/2to8/1 8/1to8/0 8/0to9/0"/>
    </vehicle>
    <vehicle id="113" depart="339.00">
        <route edges="8/6to8/7 8/7to8/6 8/6to8/5 8/5to8/4 8/4to8/3 8/3to8/2 8/2to8/1 8/1to9/1 9/1to9/0 9/0to9/1"/>
    </vehicle>
    <vehicle id="114" depart="342.00">
        <route edges="6/18to5/18 5/18to5/17 5/17to5/16 5/16to5/15 5/15to5/14 5/14to5/13 5/13to5/12 5/12to5/11 5/11to5/10 5/10to4/10 4/10to3/10 3/10to2/10 2/10to1/10"/>
    </vehicle>
    <vehicle id="115" depart="345.00">
        <route edges="2/9to1/9 1/9to1/8 1/8to1/7 1/7to1/6 1/6to1/5 1/5to1/4 1/4to1/3 1/3to1/2 1/2to1/1 1/1to1/0 1/0to2/0"/>
    </vehicle>
    <vehicle id="116" depart="348.00">
        <route edges="5/17to6/17 6/17to6/16 6/16to6/15 6/15to6/14 6/14to6/13 6/13to6/12 6/12to6/11 6/11to6/10 6/10to6/9 6/9to5/9 5/9to5/10"/>
    </vehicle>
    <vehicle id="117" depart="351.00">
        <route edges="8/12to9/12 9/12to9/13 9/13to9/14 9/14to8/14 8/14to7/14 7/14to6/14 6/14to5/14 5/14to4/14 4/14to3/14 3/14to3/15 3/15to2/15 2/15to2/14"/>
    </vehicle>
    <vehicle id="118" depart="354.00">
        <route edges="8/15to9/15 9/15to9/16 9/16to9/17 9/17to8/17 8/17to7/17 7/17to6/17 6/17to5/17 5/17to4/17 4/17to3/17 3/17to3/18"/>
    </vehicle>
    <vehicle id="119" depart="357.00">
        <route edges="8/1to8/0 8/0to8/1 8/1to7/1 7/1to6/1 6/1to5/1 5/1to4/1 4/1to4/2"/>
    </vehicle>
    <vehicle id="120" depart="360.00">
        <route edges="5/3to6/3 6/3to6/4 6/4to6/5 6/5to6/6 6/6to6/7 6/7to6/8 6/8to6/9 6/9to6/10 6/10to6/11 6/11to6/12 6/12to6/13 6/13to6/14 6/14to6/15 6/15to6/16 6/16to6/17 6/17to6/18"/>
    </vehicle>
    <vehicle id="121" depart="363.00">
        <route edges="5/6to5/5 5/5to5/6 5/6to5/7 5/7to5/8 5/8to5/9 5/9to6/9 6/9to7/9 7/9to8/9 8/9to9/9 9/9to9/8"/>
    </vehicle>
    <vehicle id="122" depart="366.00">
        <route edges="9/10to9/11 9/11to9/10 9/10to8/10 8/10to7/10 7/10to6/10 6/10to5/10 5/10to4/10 4/10to3/10 3/10to2/10 2/10to2/9 2/9to2/8 2/8to2/7 2/7to1/7 1/7to0/7 0/7to0/6"/>
    </vehicle>
    <vehicle id="123" depart="369.00">
        <route edges="6/6to7/6 7/6to7/5 7/5to7/4 7/4to6/4 6/4to5/4 5/4to4/4 4/4to3/4 3/4to2/4 2/4to1/4 1/4to1/3 1/3to1/2 1/2to0/2"/>
    </vehicle>
    <vehicle id="124" depart="372.00">
        <route edges="8/6to8/7 8/7to8/8 8/8to8/9 8/9to8/10 8/10to8/11 8/11to8/12 8/12to9/12 9/12to9/13"/>
    </vehicle>
    <vehicle id="125" depart="375.00">
        <route edges="0/15to0/14 0/14to0/15 0/15to0/16 0/16to0/17 0/17to1/17 1/17to2/17 2/17to3/17 3/17to4/17 4/17to5/17 5/17to5/16"/>
    </vehicle>
    <vehicle id="126" depart="378.00">
        <route edges="0/12to0/11 0/11to0/12 0/12to0/13 0/13to1/13 1/13to2/13 2/13to3/13 3/13to3/12"/>
    </vehicle>
    <vehicle id="127" depart="381.00">
        <route edges="8/10to9/10 9/10to9/11 9/11to9/12 9/12to8/12 8/12to7/12 7/12to6/12 6/12to5/12 5/12to4/12 4/12to3/12 3/12to3/13 3/13to3/14 3/14to3/15 3/15to3/16 3/16to3/17 3/17to3/18 3/18to2/18 2/18to1/18 1/18to0/18 0/18to1/18"/>
    </vehicle>
    <vehicle id="128" depart="384.00">
        <route edges="0/9to0/10 0/10to0/11 0/11to0/12 0/12to0/13 0/13to0/14 0/14to0/15 0/15to0/16 0/16to1/16 1/16to2/16 2/16to3/16 3/16to4/16 4/16to5/16"/>
    </vehicle>
    <vehicle id="129" depart="387.00">
        <route edges="3/17to2/17 2/17to2/16 2/16to2/15 2/15to2/14 2/14to2/13 2/13to2/12 2/12to2/11 2/11to2/10 2/10to2/9 2/9to2/8 2/8to2/7 2/7to2/6 2/6to2/5 2/5to2/4 2/4to2/3 2/3to2/2 2/2to2/1 2/1to1/1 1/1to0/1"/>
    </vehicle>
    <vehicle id="130" depart="390.00">
        <route edges="1/10to2/10 2/10to2/9 2/9to2/8 2/8to2/7 2/7to2/6 2/6to2/5 2/5to2/4 2/4to2/3 2/3to2/2 2/2to2/1 2/1to1/1 1/1to2/1"/>
    </vehicle>
    <vehicle id="131" depart="393.00">
        <route edges="4/9to4/8 4/8to4/9 4/9to4/10 4/10to4/11"/>
    </vehicle>
    <vehicle id="132" depart="396.00">
        <route edges="1/18to0/18 0/18to0/17 0/17to0/16 0/16to1/16 1/16to2/16 2/16to3/16 3/16to4/16 4/16to5/16 5/16to6/16 6/16to6/15 6/15to6/14 6/14to6/13 6/13to7/13 7/13to6/13"/>
    </vehicle>
    <vehicle id="133" depart="399.00">
        <route edges="6/4to7/4 7/4to7/5 7/5to6/5 6/5to5/5 5/5to6/5"/>
    </vehicle>
    <vehicle id="134" depart="402.00">
        <route edges="9/13to9/14 9/14to9/13 9/13to8/13 8/13to7/13 7/13to6/13 6/13to5/13 5/13to4/13 4/13to3/13 3/13to2/13 2/13to2/12 2/12to2/11 2/11to2/10 2/10to2/9 2/9to2/8 2/8to2/7 2/7to2/8"/>
    </vehicle>
    <vehicle id="135" depart="405.00">
        <route edges="3/9to3/8 3/8to3/7 3/7to3/6 3/6to3/5 3/5to3/4 3/4to4/4 4/4to5/4 5/4to6/4 6/4to6/3"/>
    </vehicle>
    <vehicle id="136" depart="408.00">
        <route edges="6/1to6/0 6/0to6/1 6/1to6/2 6/2to6/3 6/3to6/4 6/4to6/5 6/5to6/6 6/6to5/6 5/6to4/6 4/6to4/5"/>
    </vehicle>
    <vehicle id="137" depart="411.00">
        <route edges="5/10to4/10 4/10to4/11 4/11to4/12 4/12to4/13 4/13to4/14 4/14to4/15 4/15to4/16 4/16to4/17 4/17to3/17 3/17to4/17"/>
    </vehicle>
    <vehicle id="138" depart="414.00">
        <route edges="0/12to1/12 1/12to1/11 1/11to2/11 2/11to3/11 3/11to4/11 4/11to5/11 5/11to5/10"/>
    </vehicle>
    <vehicle id="139" depart="417.00">
        <route edges="1/14to1/15 1/15to1/14 1/14to1/13 1/13to1/12 1/12to1/11 1/11to1/10 1/10to2/10 2/10to3/10 3/10to4/10 4/10to5/10 5/10to6/10 6/10to6/9 6/9to6/8 6/8to6/7 6/7to6/6 6/6to6/5 6/5to6/4"/>
    </vehicle>
    <vehicle id="140" depart="420.00">
        <route edges="9/7to9/6 9/6to9/7 9/7to8/7 8/7to8/6"/>
    </vehicle>
    <vehicle id="141" depart="423.00">
        <route edges="4/16to4/17 4/17to4/16 4/16to4/15 4/15to4/14 4/14to4/13 4/13to4/12 4/12to4/11 4/11to4/10 4/10to5/10 5/10to6/10 6/10to7/10 7/10to8/10 8/10to8/9 8/9to8/8 8/8to8/7 8/7to8/6 8/6to8/5 8/5to8/4 8/4to8/3 8/3to8/2 8/2to8/1 8/1to8/0 8/0to8/1"/>
    </vehicle>
    <vehicle id="142" depart="426.00">
        <route edges="4/12to5/12 5/12to5/11 5/11to5/10 5/10to5/9 5/9to5/8 5/8to5/7 5/7to5/6 5/6to4/6 4/6to3/6 3/6to2/6"/>
    </vehicle>
    <vehicle id="143" depart="429.00">
        <route edges="2/15to1/15 1/15to1/14 1/14to1/13 1/13to2/13 2/13to3/13 3/13to4/13 4/13to5/13 5/13to6/13 6/13to7/13 7/13to7/12 7/12to7/11 7/11to7/10 7/10to7/9 7/9to7/8 7/8to7/7 7/7to7/6 7/6to7/5 7/5to7/4 7/4to8/4 8/4to8/5"/>
    </vehicle>
    <vehicle id="144" depart="432.00">
        <route edges="4/7to4/6 4/6to4/7 4/7to4/8 4/8to4/9 4/9to4/10 4/10to4/11 4/11to4/12 4/12to4/13 4/13to4/14 4/14to4/15 4/15to3/15 3/15to3/14"/>
    </vehicle>
    <vehicle id="145" depart="435.00">
        <route edges="0/18to0/19 0/19to0/18 0/18to0/17 0/17to0/16 0/16to1/16 1/16to2/16 2/16to3/16 3/16to2/16"/>
    </vehicle>
    <vehicle id="146" depart="438.00">
        <route edges="6/3to6/4 6/4to6/5 6/5to6/6 6/6to5/6"/>
    </vehicle>
    <vehicle id="147" depart="441.00">
        <route edges="4/10to4/9 4/9to4/8 4/8to4/7 4/7to4/6 4/6to3/6 3/6to2/6 2/6to1/6 1/6to0/6 0/6to1/6"/>
    </vehicle>
    <vehicle id="148" depart="444.00">
        <route edges="5/5to6/5 6/5to5/5 5/5to4/5 4/5to5/5"/>
    </vehicle>
    <vehicle id="149" depart="447.00">
        <route edges="1/9to2/9 2/9to2/8 2/8to2/7 2/7to3/7 3/7to4/7 4/7to5/7 5/7to6/7 6/7to7/7 7/7to8/7 8/7to8/6 8/6to8/5 8/5to8/4 8/4to8/3 8/3to8/2 8/2to9/2 9/2to9/3"/>
    </vehicle>
    <vehicle id="150" depart="450.00">
        <route edges="5/10to4/10 4/10to4/11 4/11to4/12 4/12to4/13 4/13to4/14 4/14to4/15 4/15to5/15"/>
    </vehicle>
    <vehicle id="151" depart="453.00">