<?xml version="1.0" encoding="UTF-8"?>

<!-- generated on Fri Jul 28 13:17:10 2017 by SUMO duarouter Version 0.30.0
<?xml version="1.0" encoding="UTF-8"?>

<configuration xmlns:xsi="http://www.w3.org/2001/XMLSchema-instance" xsi:noNamespaceSchemaLocation="http://sumo.dlr.de/xsd/duarouterConfiguration.xsd">

    <input>
        <net-file value="manhattan.net.xml"/>
        <trip-files value="trips.trips.xml"/>
    </input>

    <output>
        <output-file value="manhattan.rou.xml"/>
    </output>

</configuration>
-->

<routes xmlns:xsi="http://www.w3.org/2001/XMLSchema-instance" xsi:noNamespaceSchemaLocation="http://sumo.dlr.de/xsd/routes_file.xsd">
    <vehicle id="0" depart="0.00">
        <route edges="0/0to0/1 0/1to0/2 0/2to0/3 0/3to0/4 0/4to0/5 0/5to0/6 0/6to0/7 0/7to0/8 0/8to1/8 1/8to2/8 2/8to2/7"/>
    </vehicle>
    <vehicle id="1" depart="0.10">
        <route edges="0/8to0/9 0/9to1/9 1/9to1/8 1/8to1/7 1/7to1/6 1/6to2/6 2/6to2/5"/>
    </vehicle>
    <vehicle id="2" depart="0.20">
        <route edges="2/1to3/1 3/1to3/2 3/2to3/3 3/3to3/4 3/4to3/5 3/5to3/6 3/6to4/6 4/6toright6"/>
    </vehicle>
    <vehicle id="3" depart="0.30">
        <route edges="left9to0/9 0/9to0/8 0/8to0/7 0/7to0/6 0/6to0/5 0/5to0/4 0/4to0/3 0/3to0/2 0/2to1/2 1/2to2/2 2/2to3/2 3/2to3/3"/>
    </vehicle>
    <vehicle id="4" depart="0.40">
        <route edges="3/7to3/8 3/8to2/8 2/8to2/7 2/7to1/7 1/7to1/6 1/6to2/6 2/6to2/7"/>
    </vehicle>
    <vehicle id="5" depart="0.50">
        <route edges="right5to4/5 4/5to4/4 4/4to3/4 3/4to3/3"/>
    </vehicle>
    <vehicle id="6" depart="0.60">
        <route edges="0/6to0/7 0/7to1/7 1/7to1/6 1/6to2/6"/>
    </vehicle>
    <vehicle id="7" depart="0.70">
        <route edges="2/3to1/3 1/3to1/2 1/2to1/1 1/1to1/0 1/0to2/0 2/0to3/0"/>
    </vehicle>
    <vehicle id="8" depart="0.80">
        <route edges="3/3to3/2 3/2to2/2 2/2to2/3 2/3to2/4 2/4to2/5 2/5to2/6 2/6to1/6 1/6to1/7 1/7to1/8 1/8to0/8 0/8to0/9"/>
    </vehicle>
    <vehicle id="9" depart="0.90">
        <route edges="0/7to0/6 0/6to0/5 0/5to1/5 1/5to2/5 2/5to2/4"/>
    </vehicle>
    <vehicle id="10" depart="1.00">
        <route edges="right3to4/3 4/3to4/4 4/4to3/4 3/4to2/4 2/4to1/4 1/4to1/3"/>
    </vehicle>
    <vehicle id="11" depart="1.10">
        <route edges="1/1to2/1 2/1to2/0 2/0to1/0 1/0to0/0 0/0tobottom0"/>
    </vehicle>
    <vehicle id="12" depart="1.20">
        <route edges="3/2to2/2 2/2to2/1 2/1to3/1 3/1to3/0 3/0to2/0"/>
    </vehicle>
    <vehicle id="13" depart="1.30">
        <route edges="1/3to1/4 1/4to2/4 2/4to3/4 3/4to4/4 4/4to4/3 4/3to3/3"/>
    </vehicle>
    <vehicle id="14" depart="1.40">
        <route edges="4/1to4/2 4/2to4/3 4/3to4/4 4/4to3/4 3/4to2/4"/>
    </vehicle>
    <vehicle id="15" depart="1.50">
        <route edges="1/9to0/9 0/9to0/8 0/8to0/7 0/7to0/6 0/6to0/5 0/5to0/4 0/4to0/3 0/3to0/2 0/2to0/1"/>
    </vehicle>
    <vehicle id="16" depart="1.60">
        <route edges="1/4to0/4 0/4to0/5 0/5to0/6 0/6to1/6 1/6to2/6 2/6to2/5"/>
    </vehicle>
    <vehicle id="17" depart="1.70">
        <route edges="3/1to3/2 3/2to3/3 3/3to3/4 3/4to4/4"/>
    </vehicle>
    <vehicle id="18" depart="1.80">
        <route edges="1/4to1/5 1/5to1/6 1/6to0/6"/>
    </vehicle>
    <vehicle id="19" depart="1.90">
        <route edges="3/7to3/8 3/8to2/8 2/8to2/7 2/7to2/6 2/6to2/5"/>
    </vehicle>
    <vehicle id="20" depart="2.00">
        <route edges="4/6to4/7 4/7to3/7 3/7to3/6 3/6to3/5 3/5to2/5 2/5to1/5 1/5to1/6"/>
    </vehicle>
    <vehicle id="21" depart="2.10">
        <route edges="3/1to3/2 3/2to3/3 3/3to3/4 3/4to3/5 3/5to3/6 3/6to3/7 3/7to3/8 3/8to3/9"/>
    </vehicle>
    <vehicle id="22" depart="2.20">
        <route edges="0/7to0/8 0/8to0/9 0/9to1/9 1/9to2/9 2/9to3/9 3/9to4/9 4/9to4/8"/>
    </vehicle>
    <vehicle id="23" depart="2.30">
        <route edges="3/2to3/3 3/3to4/3 4/3to4/2 4/2to4/1 4/1to3/1 3/1to2/1"/>
    </vehicle>
    <vehicle id="24" depart="2.40">
        <route edges="2/7to1/7 1/7to1/6 1/6to1/5"/>
    </vehicle>
    <vehicle id="25" depart="2.50">
        <route edges="4/1to4/0 4/0to3/0 3/0to3/1 3/1to3/2 3/2to3/3 3/3to3/4 3/4to2/4 2/4to2/5 2/5to1/5 1/5to0/5"/>
    </vehicle>
    <vehicle id="26" depart="2.60">
        <route edges="1/7to0/7 0/7to0/8 0/8to1/8 1/8to1/9 1/9to0/9 0/9to0/8"/>
    </vehicle>
    <vehicle id="27" depart="2.70">
        <route edges="4/2to4/3 4/3to3/3 3/3to3/2 3/2to2/2 2/2to1/2 1/2to1/1 1/1to2/1"/>
    </vehicle>
    <vehicle id="28" depart="2.80">
        <route edges="2/0to1/0 1/0to0/0 0/0to0/1"/>
    </vehicle>
    <vehicle id="29" depart="2.90">
        <route edges="0/7to1/7 1/7to1/8 1/8to0/8"/>
    </vehicle>
    <vehicle id="30" depart="3.00">
        <route edges="3/6to3/5 3/5to2/5 2/5to1/5"/>
    </vehicle>
    <vehicle id="31" depart="3.10">
        <route edges="bottom0to0/0 0/0to1/0 1/0to2/0 2/0tobottom2"/>
    </vehicle>
    <vehicle id="32" depart="3.20">
        <route edges="4/8to4/9 4/9to3/9 3/9to3/8 3/8to3/7 3/7to3/6 3/6to3/5 3/5to4/5 4/5to4/4 4/4toright4"/>
    </vehicle>
    <vehicle id="33" depart="3.30">
        <route edges="1/5to2/5 2/5to2/6 2/6to2/7 2/7to1/7 1/7to1/6 1/6to2/6"/>
    </vehicle>
    <vehicle id="34" depart="3.40">
        <route edges="3/5to2/5 2/5to2/4 2/4to2/3 2/3to1/3 1/3to0/3 0/3to0/2"/>
    </vehicle>
    <vehicle id="35" depart="3.50">
        <route edges="2/9to1/9 1/9to1/8 1/8to1/7 1/7to1/6 1/6to1/5 1/5to1/4 1/4to2/4 2/4to2/3 2/3to2/2 2/2to2/1 2/1to2/0 2/0to3/0 3/0to4/0"/>
    </vehicle>
    <vehicle id="36" depart="3.60">
        <route edges="2/7to2/8 2/8to3/8 3/8to3/7 3/7to3/6 3/6to3/5 3/5to3/4 3/4to4/4"/>
    </vehicle>
    <vehicle id="37" depart="3.70">
        <route edges="2/1to2/2 2/2to2/3 2/3to2/4 2/4to2/5 2/5to2/6 2/6to3/6 3/6to4/6 4/6to4/7 4/7to3/7"/>
    </vehicle>
    <vehicle id="38" depart="3.80">
        <route edges="right7to4/7 4/7to4/8 4/8to4/9 4/9to3/9 3/9to2/9"/>
    </vehicle>
    <vehicle id="39" depart="3.90">
        <route edges="2/9to1/9 1/9to1/8 1/8to1/7 1/7to1/6 1/6to1/5 1/5to1/4 1/4to2/4 2/4to3/4 3/4to4/4"/>
    </vehicle>
    <vehicle id="40" depart="4.00">
        <route edges="2/1to3/1 3/1to3/2 3/2to3/3 3/3to3/4 3/4to3/5 3/5to3/6 3/6to4/6 4/6to4/7 4/7to4/8"/>
    </vehicle>
    <vehicle id="41" depart="4.10">
        <route edges="right9to4/9 4/9to4/8 4/8to4/7 4/7to4/6 4/6to4/5 4/5to3/5 3/5to2/5 2/5to2/4 2/4to2/3 2/3to1/3 1/3to0/3"/>
    </vehicle>
    <vehicle id="42" depart="4.20">
        <route edges="3/9to2/9 2/9to2/8 2/8to2/7 2/7to2/6 2/6to3/6 3/6to3/5"/>
    </vehicle>
    <vehicle id="43" depart="4.30">
        <route edges="0/0to0/1 0/1to0/2 0/2to0/3 0/3to0/4 0/4to0/5 0/5to1/5 1/5to1/6 1/6to0/6 0/6to0/5"/>
    </vehicle>
    <vehicle id="44" depart="4.40">
        <route edges="1/1to1/2 1/2to1/3 1/3to1/4 1/4to2/4 2/4to3/4 3/4to4/4 4/4to4/5 4/5to3/5"/>
    </vehicle>
    <vehicle id="45" depart="4.50">
        <route edges="4/4to4/5 4/5to4/6 4/6to4/7 4/7to4/8"/>
    </vehicle>
    <vehicle id="46" depart="4.60">
        <route edges="1/4to0/4 0/4to0/5 0/5to0/6 0/6to0/7 0/7to0/8 0/8to1/8 1/8to2/8 2/8to2/9"/>
    </vehicle>
    <vehicle id="47" depart="4.70">
        <route edges="4/9to4/8 4/8to4/7 4/7to4/6 4/6to4/5 4/5to4/4 4/4to3/4 3/4to2/4 2/4to1/4 1/4to0/4 0/4to0/5"/>
    </vehicle>
    <vehicle id="48" depart="4.80">
        <route edges="left7to0/7 0/7to0/6 0/6to0/5 0/5to0/4 0/4to0/3 0/3to1/3 1/3to2/3 2/3to2/2 2/2to2/1 2/1to3/1 3/1to4/1 4/1toright1"/>
    </vehicle>
    <vehicle id="49" depart="4.90">
        <route edges="1/3to1/4 1/4to2/4 2/4to3/4 3/4to4/4 4/4toright4"/>
    </vehicle>
    <vehicle id="50" depart="5.00">
        <route edges="3/7to4/7 4/7to4/6 4/6to3/6 3/6to2/6 2/6to1/6 1/6to0/6 0/6to0/5 0/5to1/5"/>
    </vehicle>
    <vehicle id="51" depart="5.10">
        <route edges="4/9to4/8 4/8to4/7 4/7to4/6 4/6to4/5 4/5to4/4 4/4to4/3 4/3to4/2 4/2to4/1 4/1to3/1 3/1to2/1"/>
    </vehicle>
    <vehicle id="52" depart="5.20">
        <route edges="right8to4/8 4/8to4/7 4/7to4/6 4/6to4/5 4/5to3/5 3/5to2/5 2/5to1/5 1/5to1/4"/>
    </vehicle>
    <vehicle id="53" depart="5.30">
        <route edges="0/0to0/1 0/1to0/2 0/2to0/3 0/3to0/4 0/4to1/4 1/4to2/4 2/4to2/5"/>
    </vehicle>
    <vehicle id="54" depart="5.40">
        <route edges="1/6to1/5 1/5to1/4 1/4to1/3 1/3to2/3 2/3to2/2"/>
    </vehicle>
    <vehicle id="55" depart="5.50">
        <route edges="3/9to4/9 4/9to4/8 4/8to3/8 3/8to3/7 3/7to4/7 4/7to4/8"/>
    </vehicle>
    <vehicle id="56" depart="5.60">
        <route edges="left3to0/3 0/3to0/4 0/4to0/5 0/5to0/6 0/6to1/6 1/6to2/6 2/6to2/7"/>
    </vehicle>
    <vehicle id="57" depart="5.70">
        <route edges="3/3to3/2 3/2to3/1 3/1to3/0"/>
    </vehicle>
    <vehicle id="58" depart="5.80">
        <route edges="3/0to3/1 3/1to3/2 3/2to3/3 3/3to3/4 3/4to2/4 2/4to1/4 1/4to0/4 0/4to0/5 0/5to1/5"/>
    </vehicle>
    <vehicle id="59" depart="5.90">
        <route edges="top2to2/9 2/9to2/8 2/8to2/7 2/7to2/6 2/6to2/5 2/5to3/5 3/5to4/5 4/5to4/4 4/4to4/3 4/3to3/3"/>
    </vehicle>
    <vehicle id="60" depart="6.00">
        <route edges="1/2to0/2 0/2to0/3 0/3to0/4 0/4to0/5 0/5to0/6 0/6to0/7 0/7to1/7 1/7to2/7 2/7to2/8"/>
    </vehicle>
    <vehicle id="61" depart="6.10">
        <route edges="1/8to0/8 0/8to0/7 0/7to1/7 1/7to2/7 2/7to3/7 3/7to3/6"/>
    </vehicle>
    <vehicle id="62" depart="6.20">
        <route edges="3/7to3/8 3/8to4/8 4/8to4/7 4/7to4/6 4/6to4/5 4/5to4/4 4/4to4/3 4/3to4/2 4/2to4/1 4/1to4/0 4/0toright0"/>
    </vehicle>
    <vehicle id="63" depart="6.30">
        <route edges="1/7to0/7 0/7to0/6 0/6to1/6 1/6to1/7 1/7to2/7"/>
    </vehicle>
    <vehicle id="64" depart="6.40">
        <route edges="2/6to3/6 3/6to3/5 3/5to3/4 3/4to3/3 3/3to4/3"/>
    </vehicle>
    <vehicle id="65" depart="6.50">
        <route edges="4/6to3/6 3/6to3/5 3/5to3/4 3/4to3/3 3/3to3/2 3/2to4/2 4/2to4/3"/>
    </vehicle>
    <vehicle id="66" depart="6.60">
        <route edges="2/0to2/1 2/1to3/1 3/1to3/0 3/0tobottom3"/>
    </vehicle>
    <vehicle id="67" depart="6.70">
        <route edges="3/9to4/9 4/9to4/8 4/8to3/8 3/8to2/8 2/8to2/9 2/9to1/9"/>
    </vehicle>
    <vehicle id="68" depart="6.80">
        <route edges="0/5to1/5 1/5to2/5 2/5to3/5"/>
    </vehicle>
    <vehicle id="69" depart="6.90">
        <route edges="2/1to2/2 2/2to2/3 2/3to2/4 2/4to2/5 2/5to2/6 2/6to3/6 3/6to4/6 4/6to4/7 4/7to3/7"/>
    </vehicle>
    <vehicle id="70" depart="7.00">
        <route edges="0/6to0/7 0/7to0/8 0/8to0/9 0/9to1/9 1/9to2/9 2/9totop2"/>
    </vehicle>
    <vehicle id="71" depart="7.10">
        <route edges="2/7to2/6 2/6to1/6 1/6to1/7 1/7to0/7"/>
    </vehicle>
    <vehicle id="72" depart="7.20">
        <route edges="3/5to2/5 2/5to2/4 2/4to2/3 2/3to1/3 1/3to1/2 1/2to2/2 2/2to2/3"/>
    </vehicle>
    <vehicle id="73" depart="7.30">
        <route edges="2/1to2/2 2/2to2/3 2/3to1/3 1/3to1/2"/>
    </vehicle>
    <vehicle id="74" depart="7.40">
        <route edges="4/3to3/3 3/3to3/2 3/2to3/1 3/1to2/1 2/1to2/0 2/0to3/0"/>
    </vehicle>
    <vehicle id="75" depart="7.50">
        <route edges="1/4to0/4 0/4to0/3 0/3to1/3 1/3to2/3 2/3to2/4 2/4to3/4 3/4to4/4 4/4to4/5"/>
    </vehicle>
    <vehicle id="76" depart="7.60">
        <route edges="2/8to1/8 1/8to1/7 1/7to1/6 1/6to1/5 1/5to1/4 1/4to1/3 1/3to0/3 0/3to0/2 0/2to0/1 0/1toleft1"/>
    </vehicle>
    <vehicle id="77" depart="7.70">
        <route edges="2/0to3/0 3/0to3/1 3/1to3/2 3/2to4/2 4/2toright2"/>
    </vehicle>
    <vehicle id="78" depart="7.80">
        <route edges="3/3to3/2 3/2to2/2 2/2to2/3 2/3to2/4 2/4to3/4"/>
    </vehicle>
    <vehicle id="79" depart="7.90">
        <route edges="1/4to2/4 2/4to2/3 2/3to2/2 2/2to3/2"/>
    </vehicle>
    <vehicle id="80" depart="8.00">
        <route edges="bottom3to3/0 3/0to3/1 3/1to3/2 3/2to3/3 3/3to3/4 3/4to3/5 3/5to3/6 3/6to3/7 3/7to2/7 2/7to1/7 1/7to0/7 0/7to0/8 0/8to1/8"/>
    </vehicle>
    <vehicle id="81" depart="8.10">
        <route edges="2/4to2/3 2/3to3/3 3/3to3/4 3/4to3/5 3/5to3/6 3/6to3/7 3/7to2/7 2/7to1/7 1/7to1/6"/>
    </vehicle>
    <vehicle id="82" depart="8.20">
        <route edges="3/0to3/1 3/1to2/1 2/1to2/0 2/0to1/0 1/0to0/0 0/0to0/1"/>
    </vehicle>
    <vehicle id="83" depart="8.30">
        <route edges="2/9to2/8 2/8to2/7 2/7to2/6 2/6to2/5 2/5to2/4 2/4to2/3 2/3to2/2 2/2to2/1 2/1to3/1 3/1to4/1 4/1to4/0 4/0to3/0"/>
    </vehicle>
    <vehicle id="84" depart="8.40">
        <route edges="1/6to0/6 0/6to0/7 0/7to0/8 0/8to1/8 1/8to2/8"/>
    </vehicle>
    <vehicle id="85" depart="8.50">
        <route edges="3/5to3/6 3/6to3/7 3/7to3/8 3/8to3/9"/>
    </vehicle>
    <vehicle id="86" depart="8.60">
        <route edges="1/8to1/7 1/7to1/6 1/6to0/6 0/6to0/7"/>
    </vehicle>
    <vehicle id="87" depart="8.70">
        <route edges="right5to4/5 4/5to4/4 4/4to4/3 4/3to4/2 4/2to4/1 4/1to4/0"/>
    </vehicle>
    <vehicle id="88" depart="8.80">
        <route edges="4/1to4/2 4/2to4/3 4/3to4/4 4/4to4/5 4/5to4/6 4/6to3/6 3/6to2/6 2/6to1/6 1/6to0/6 0/6toleft6"/>
    </vehicle>
    <vehicle id="89" depart="8.90">
        <route edges="0/4to0/5 0/5to0/6 0/6to0/7 0/7to0/8 0/8to0/9 0/9to1/9 1/9to2/9 2/9totop2"/>
    </vehicle>
    <vehicle id="90" depart="9.00">
        <route edges="3/6to3/7 3/7to2/7 2/7to2/6 2/6to2/5 2/5to2/4 2/4to2/3 2/3to1/3 1/3to1/2 1/2to0/2 0/2to0/1"/>
    </vehicle>
    <vehicle id="91" depart="9.10">
        <route edges="2/8to2/7 2/7to2/6 2/6to2/5 2/5to2/4 2/4to2/3 2/3to1/3 1/3to0/3 0/3to0/2 0/2to0/1 0/1to0/0 0/0to1/0"/>
    </vehicle>
    <vehicle id="92" depart="9.20">
        <route edges="1/7to1/6 1/6to0/6 0/6to0/7 0/7to0/8 0/8to1/8 1/8to2/8"/>
    </vehicle>
    <vehicle id="93" depart="9.30">
        <route edges="0/4to0/5 0/5to1/5 1/5to2/5 2/5to2/6"/>
    </vehicle>
    <vehicle id="94" depart="9.40">
        <route edges="bottom1to1/0 1/0to1/1 1/1to1/2 1/2to1/3 1/3to1/4 1/4to1/5 1/5to0/5 0/5to0/4"/>
    </vehicle>
    <vehicle id="95" depart="9.50">
        <route edges="3/5to3/4 3/4to3/3 3/3to3/2 3/2to3/1 3/1to3/0 3/0to4/0 4/0tobottom4"/>
    </vehicle>
    <vehicle id="96" depart="9.60">
        <route edges="0/7to0/6 0/6to0/5 0/5to0/4 0/4to1/4 1/4to2/4 2/4to2/3 2/3to1/3"/>
    </vehicle>
    <vehicle id="97" depart="9.70">
        <route edges="2/3to1/3 1/3to1/2 1/2to1/1 1/1to1/0 1/0to2/0"/>
    </vehicle>
    <vehicle id="98" depart="9.80">
        <route edges="3/8to2/8 2/8to2/7 2/7to2/6 2/6to2/5 2/5to1/5 1/5to0/5 0/5to0/4 0/4to1/4"/>
    </vehicle>
    <vehicle id="99" depart="9.90">
        <route edges="4/5to3/5 3/5to2/5 2/5to1/5 1/5to1/4 1/4to1/3"/>
    </vehicle>
    <vehicle id="100" depart="10.00">
        <route edges="2/1to1/1 1/1to1/2 1/2to1/3 1/3to1/4 1/4to2/4"/>
    </vehicle>
    <vehicle id="101" depart="10.10">
        <route edges="1/4to1/3 1/3to0/3 0/3to0/4 0/4to0/5 0/5to0/6"/>
    </vehicle>
    <vehicle id="102" depart="10.20">
        <route edges="3/5to4/5 4/5to4/6 4/6to3/6"/>
    </vehicle>
    <vehicle id="103" depart="10.30">
        <route edges="2/5to3/5 3/5to3/4 3/4to3/3 3/3to2/3 2/3to1/3 1/3to0/3 0/3toleft3"/>
    </vehicle>
    <vehicle id="104" depart="10.40">
        <route edges="2/3to2/2 2/2to1/2 1/2to1/3 1/3to1/4 1/4to1/5 1/5to1/6 1/6to1/7 1/7to1/8 1/8to1/9 1/9to0/9"/>
    </vehicle>
    <vehicle id="105" depart="10.50">
        <route edges="left9to0/9 0/9to0/8 0/8to0/7 0/7to0/6 0/6to0/5 0/5to0/4 0/4to0/3 0/3to1/3 1/3to1/4"/>
    </vehicle>
    <vehicle id="106" depart="10.60">
        <route edges="2/0to1/0 1/0to1/1 1/1to2/1 2/1to2/0 2/0to3/0 3/0to3/1"/>
    </vehicle>
    <vehicle id="107" depart="10.70">
        <route edges="2/3to2/4 2/4to2/5 2/5to2/6 2/6to2/7 2/7to1/7 1/7to0/7 0/7to0/8 0/8to1/8"/>
    </vehicle>
    <vehicle id="108" depart="10.80">
        <route edges="0/8to0/9 0/9to1/9 1/9to1/8 1/8to1/7 1/7to1/6 1/6to0/6"/>
    </vehicle>
    <vehicle id="109" depart="10.90">
        <route edges="left8to0/8 0/8to0/7 0/7to0/6 0/6to0/5 0/5to0/4 0/4to1/4 1/4to2/4 2/4to3/4 3/4to4/4"/>
    </vehicle>
    <vehicle id="110" depart="11.00">
        <route edges="3/6to4/6 4/6to4/5 4/5to4/4 4/4to3/4 3/4to2/4 2/4to1/4 1/4to1/3 1/3to2/3"/>
    </vehicle>
    <vehicle id="111" depart="11.10">
        <route edges="1/7to1/8 1/8to2/8 2/8to2/7 2/7to2/6 2/6to2/5 2/5to2/4 2/4to3/4 3/4to3/3 3/3to4/3"/>
    </vehicle>
    <vehicle id="112" depart="11.20">
        <route edges="left5to0/5 0/5to0/6 0/6to0/7 0/7to0/8 0/8to1/8 1/8to2/8 2/8to3/8 3/8to4/8 4/8toright8"/>
    </vehicle>
    <vehicle id="113" depart="11.30">
        <route edges="3/8to2/8 2/8to2/7 2/7to2/6 2/6to2/5 2/5to2/4 2/4to2/3 2/3to2/2 2/2to2/1 2/1to2/0 2/0to1/0"/>
    </vehicle>
    <vehicle id="114" depart="11.40">
        <route edges="right1to4/1 4/1to4/2 4/2to4/3 4/3to3/3 3/3to2/3 2/3to2/2"/>
    </vehicle>
    <vehicle id="115" depart="11.50">
        <route edges="left9to0/9 0/9to0/8 0/8to0/7 0/7to0/6 0/6to0/5 0/5to0/4 0/4to0/3 0/3toleft3"/>
    </vehicle>
    <vehicle id="116" depart="11.60">
        <route edges="0/9to0/8 0/8to1/8 1/8to2/8 2/8to3/8 3/8to3/7"/>
    </vehicle>
    <vehicle id="117" depart="11.70">
        <route edges="3/3to3/4 3/4to3/5 3/5to3/6 3/6to3/7 3/7to2/7"/>
    </vehicle>
    <vehicle id="118" depart="11.80">
        <route edges="1/6to0/6 0/6to0/5 0/5to0/4 0/4to0/3 0/3to0/2 0/2to0/1 0/1to1/1 1/1to1/2"/>
    </vehicle>
    <vehicle id="119" depart="11.90">
        <route edges="1/7to0/7 0/7to0/8 0/8to0/9 0/9totop0"/>
    </vehicle>
    <vehicle id="120" depart="12.00">
        <route edges="1/8to0/8 0/8to0/7 0/7to1/7 1/7to2/7"/>
    </vehicle>
    <vehicle id="121" depart="12.10">
        <route edges="2/1to1/1 1/1to1/2 1/2to1/3 1/3to2/3"/>
    </vehicle>
    <vehicle id="122" depart="12.20">
        <route edges="3/9to2/9 2/9to1/9 1/9to0/9"/>
    </vehicle>
    <vehicle id="123" depart="12.30">
        <route edges="2/8to2/9 2/9to1/9 1/9to1/8 1/8to1/7 1/7to1/6 1/6to1/5 1/5to1/4 1/4to1/3 1/3to0/3 0/3to0/4"/>
    </vehicle>
    <vehicle id="124" depart="12.40">
        <route edges="2/6to3/6 3/6to3/7 3/7to2/7 2/7to1/7 1/7to0/7 0/7to0/8 0/8to1/8"/>
    </vehicle>
    <vehicle id="125" depart="12.50">
        <route edges="0/3to0/4 0/4to0/5 0/5to0/6 0/6to1/6 1/6to2/6 2/6to3/6 3/6to4/6 4/6toright6"/>
    </vehicle>
    <vehicle id="126" depart="12.60">
        <route edges="4/1to4/2 4/2to4/3 4/3to4/4 4/4to4/5 4/5to4/6 4/6to4/7 4/7to4/8 4/8to4/9 4/9to3/9 3/9to2/9 2/9to1/9 1/9to0/9 0/9toleft9"/>
    </vehicle>
    <vehicle id="127" depart="12.70">
        <route edges="1/1to1/2 1/2to1/3 1/3to2/3 2/3to3/3 3/3to4/3 4/3toright3"/>
    </vehicle>
    <vehicle id="128" depart="12.80">
        <route edges="left9to0/9 0/9to0/8 0/8to1/8 1/8to1/7 1/7to0/7"/>
    </vehicle>
    <vehicle id="129" depart="12.90">
        <route edges="3/1to2/1 2/1to2/2 2/2to2/3 2/3to2/4 2/4to2/5 2/5to2/6 2/6to3/6 3/6to3/7 3/7to3/8 3/8to4/8 4/8toright8"/>
    </vehicle>
    <vehicle id="130" depart="13.00">
        <route edges="1/6to1/7 1/7to2/7 2/7to2/6 2/6to2/5 2/5to2/4 2/4to3/4 3/4to4/4 4/4to4/3"/>
    </vehicle>
    <vehicle id="131" depart="13.10">
        <route edges="4/7to4/6 4/6to3/6"/>
    </vehicle>
    <vehicle id="132" depart="13.20">
        <route edges="1/2to0/2 0/2to0/3 0/3to1/3 1/3to2/3 2/3to2/4"/>
    </vehicle>
    <vehicle id="133" depart="13.30">
        <route edges="1/3to0/3 0/3to0/4 0/4to0/5 0/5to0/6"/>
    </vehicle>
    <vehicle id="134" depart="13.40">
        <route edges="right8to4/8 4/8to4/7 4/7to4/6 4/6to3/6 3/6to2/6 2/6to1/6 1/6to0/6"/>
    </vehicle>
    <vehicle id="135" depart="13.50">
        <route edges="3/9to3/8 3/8to3/7 3/7to3/6 3/6to3/5 3/5to3/4 3/4to3/3 3/3to3/2 3/2to3/1 3/1to2/1 2/1to2/0 2/0to1/0 1/0to0/0 0/0to0/1"/>
    </vehicle>
    <vehicle id="136" depart="13.60">
        <route edges="4/1to3/1 3/1to3/2 3/2to3/3 3/3to3/4 3/4to3/5 3/5to3/6 3/6to2/6 2/6to2/7 2/7to2/8 2/8to2/9 2/9to1/9 1/9to0/9 0/9to0/8"/>
    </vehicle>
    <vehicle id="137" depart="13.70">
        <route edges="left6to0/6 0/6to0/7 0/7to0/8 0/8to1/8 1/8to1/9 1/9to0/9 0/9to0/8"/>
    </vehicle>
    <vehicle id="138" depart="13.80">
        <route edges="0/0to0/1 0/1to0/2 0/2to0/3 0/3to0/4 0/4to0/5 0/5to0/6 0/6to0/7 0/7to0/8 0/8to0/9 0/9to1/9 1/9to1/8"/>
    </vehicle>
    <vehicle id="139" depart="13.90">
        <route edges="3/9to3/8 3/8to3/7 3/7to3/6 3/6to3/5 3/5to3/4 3/4to3/3 3/3to3/2 3/2to3/1 3/1to4/1 4/1to4/0 4/0toright0"/>
    </vehicle>
    <vehicle id="140" depart="14.00">
        <route edges="2/2to3/2 3/2to3/1 3/1to3/0"/>
    </vehicle>
    <vehicle id="141" depart="14.10">
        <route edges="3/6to3/5 3/5to2/5 2/5to2/6 2/6to2/7 2/7to1/7 1/7to1/8 1/8to2/8"/>
    </vehicle>
    <vehicle id="142" depart="14.20">
        <route edges="1/6to1/7 1/7to2/7 2/7to2/6 2/6to2/5 2/5to2/4 2/4to2/3 2/3to3/3 3/3to4/3 4/3to4/4"/>
    </vehicle>
    <vehicle id="143" depart="14.30">
        <route edges="3/5to3/6 3/6to2/6 2/6to2/5 2/5to2/4 2/4to2/3 2/3to2/2 2/2to3/2 3/2to3/1 3/1to3/0 3/0to4/0 4/0to4/1"/>
    </vehicle>
    <vehicle id="144" depart="14.40">
        <route edges="4/4to4/5 4/5to4/6 4/6to4/7 4/7to4/8 4/8to3/8 3/8to2/8 2/8to2/9 2/9to3/9"/>
    </vehicle>
    <vehicle id="145" depart="14.50">
        <route edges="1/9to0/9 0/9to0/8 0/8to0/7 0/7to0/6"/>
    </vehicle>
    <vehicle id="146" depart="14.60">
        <route edges="2/6to1/6 1/6to1/5 1/5to2/5 2/5to3/5 3/5to4/5"/>
    </vehicle>
    <vehicle id="147" depart="14.70">
        <route edges="4/9to4/8 4/8to4/7 4/7to3/7 3/7to2/7 2/7to1/7 1/7to0/7 0/7to0/6"/>
    </vehicle>
    <vehicle id="148" depart="14.80">
        <route edges="2/2to1/2 1/2to1/1 1/1to0/1 0/1to0/2"/>
    </vehicle>
    <vehicle id="149" depart="14.90">
        <route edges="1/2to2/2 2/2to2/3 2/3to2/4 2/4to3/4 3/4to4/4 4/4toright4"/>
    </vehicle>
    <vehicle id="150" depart="15.00">
        <route edges="3/8to4/8 4/8to4/7 4/7to4/6 4/6to4/5 4/5to3/5 3/5to2/5 2/5to1/5 1/5to0/5 0/5toleft5"/>
    </vehicle>
    <vehicle id="151" depart="15.10">
        <route edges="4/8to4/9 4/9to3/9 3/9to3/8 3/8to3/7 3/7to3/6 3/6to3/5 3/5to3/4 3/4to4/4 4/4to4/5"/>
    </vehicle>
    <vehicle id="152" depart="15.20">
        <route edges="2/8to1/8 1/8to1/7 1/7to1/6 1/6to1/5 1/5to1/4 1/4to1/3 1/3to0/3 0/3to0/2 0/2to1/2"/>
    </vehicle>
    <vehicle id="153" depart="15.30">
        <route edges="0/9to0/8 0/8to1/8 1/8to2/8 2/8to2/9"/>
    </vehicle>
    <vehicle id="154" depart="15.40">
        <route edges="1/0to1/1 1/1to1/2 1/2to1/3 1/3to1/4 1/4to1/5 1/5to1/6 1/6to1/7 1/7to1/8 1/8to2/8 2/8to2/9 2/9to3/9 3/9to3/8"/>
    </vehicle>
    <vehicle id="155" depart="15.50">
        <route edges="1/3to2/3 2/3to2/4 2/4to3/4 3/4to3/3"/>
    </vehicle>
    <vehicle id="156" depart="15.60">
        <route edges="bottom4to4/0 4/0to4/1 4/1to4/2 4/2to4/3 4/3to4/4 4/4to3/4 3/4to2/4 2/4to2/5 2/5to2/6 2/6to1/6 1/6to0/6"/>
    </vehicle>
    <vehicle id="157" depart="15.70">
        <route edges="3/4to2/4 2/4to2/5 2/5to3/5 3/5to4/5 4/5to4/4 4/4to4/3"/>
    </vehicle>
    <vehicle id="158" depart="15.80">
        <route edges="3/1to3/2 3/2to3/3 3/3to3/4 3/4to2/4 2/4to1/4 1/4to1/5 1/5to2/5"/>
    </vehicle>
    <vehicle id="159" depart="15.90">
        <route edges="0/4to0/3 0/3to0/2 0/2to1/2 1/2to1/1 1/1to0/1 0/1to0/2"/>
    </vehicle>
    <vehicle id="160" depart="16.00">
        <route edges="3/7to3/6 3/6to2/6 2/6to2/7 2/7to1/7 1/7to1/8 1/8to2/8"/>
    </vehicle>
    <vehicle id="161" depart="16.10">
        <route edges="4/3to4/2 4/2to3/2 3/2to2/2"/>
    </vehicle>
    <vehicle id="162" depart="16.20">
        <route edges="bottom3to3/0 3/0to3/1 3/1to3/2 3/2to3/3 3/3to3/4 3/4to3/5 3/5to2/5 2/5to2/6 2/6to3/6 3/6to3/5"/>
    </vehicle>
    <vehicle id="163" depart="16.30">
        <route edges="4/2to4/1 4/1to3/1 3/1to3/2 3/2to3/3 3/3to3/4 3/4to3/5 3/5to2/5 2/5to2/6 2/6to2/7 2/7to2/8 2/8to3/8 3/8to3/7"/>
    </vehicle>
    <vehicle id="164" depart="16.40">
        <route edges="1/0to1/1 1/1to1/2 1/2to1/3 1/3to0/3 0/3toleft3"/>
    </vehicle>
    <vehicle id="165" depart="16.50">
        <route edges="0/2to0/1 0/1to1/1 1/1to1/2 1/2to1/3 1/3to1/4 1/4to1/5 1/5to2/5 2/5to2/6 2/6to2/7 2/7to2/8 2/8to2/9"/>
    </vehicle>
    <vehicle id="166" depart="16.60">
        <route edges="3/3to3/2 3/2to2/2 2/2to2/3 2/3to1/3 1/3to0/3 0/3to0/2"/>
    </vehicle>
    <vehicle id="167" depart="16.70">
        <route edges="0/5to0/4 0/4toleft4"/>
    </vehicle>
    <vehicle id="168" depart="16.80">
        <route edges="3/7to3/6 3/6to3/5 3/5to4/5 4/5to4/6"/>
    </vehicle>
    <vehicle id="169" depart="16.90">
        <route edges="1/9to2/9 2/9to2/8 2/8to3/8 3/8to4/8 4/8to4/9"/>
    </vehicle>
    <vehicle id="170" depart="17.00">
        <route edges="3/1to3/0 3/0to2/0 2/0to2/1 2/1to2/2 2/2to2/3 2/3to2/4 2/4to2/5 2/5to2/6 2/6to3/6 3/6to3/5"/>
    </vehicle>
    <vehicle id="171" depart="17.10">
        <route edges="0/2to0/1 0/1to1/1 1/1to1/2 1/2to1/3 1/3to1/4 1/4to1/5 1/5to1/6 1/6to1/7 1/7to1/8 1/8to0/8 0/8to0/7"/>
    </vehicle>
    <vehicle id="172" depart="17.20">
        <route edges="3/8to3/7 3/7to3/6 3/6to3/5 3/5to3/4 3/4to2/4 2/4to2/3"/>
    </vehicle>
    <vehicle id="173" depart="17.30">
        <route edges="left4to0/4 0/4to0/5 0/5to1/5 1/5to2/5 2/5to3/5 3/5to3/6"/>
    </vehicle>
    <vehicle id="174" depart="17.40">
        <route edges="3/6to3/5 3/5to2/5 2/5to2/6 2/6to2/7 2/7to1/7 1/7to0/7 0/7to0/8 0/8to1/8"/>
    </vehicle>
    <vehicle id="175" depart="17.50">
        <route edges="3/3to3/2 3/2to2/2 2/2to2/3 2/3to2/4 2/4to2/5 2/5to2/6 2/6to3/6 3/6to3/7 3/7to3/8"/>
    </vehicle>
    <vehicle id="176" depart="17.60">
        <route edges="1/4to2/4 2/4to3/4 3/4to3/5 3/5to2/5 2/5to2/4"/>
    </vehicle>
    <vehicle id="177" depart="17.70">
        <route edges="top2to2/9 2/9to2/8 2/8to2/7 2/7to2/6 2/6to2/5 2/5to2/4 2/4to2/3 2/3to2/2 2/2to3/2 3/2to4/2 4/2to4/1 4/1to3/1"/>
    </vehicle>
    <vehicle id="178" depart="17.80">
        <route edges="1/3to1/4 1/4to1/5 1/5to1/6 1/6to0/6"/>
    </vehicle>
    <vehicle id="179" depart="17.90">
        <route edges="0/6to1/6 1/6to1/5 1/5to1/4 1/4to1/3 1/3to1/2 1/2to1/1 1/1to1/0 1/0to0/0 0/0to0/1"/>
    </vehicle>
    <vehicle id="180" depart="18.00">
        <route edges="left5to0/5 0/5to0/4 0/4to0/3 0/3to0/2 0/2to0/1 0/1to0/0"/>
    </vehicle>
    <vehicle id="181" depart="18.10">
        <route edges="3/8to2/8 2/8to2/7 2/7to2/6 2/6to2/5 2/5to2/4 2/4to2/3 2/3to3/3 3/3to3/2 3/2to3/1 3/1to3/0 3/0to4/0 4/0tobottom4"/>
    </vehicle>
    <vehicle id="182" depart="18.20">
        <route edges="3/4to4/4 4/4to4/3 4/3to4/2 4/2to4/1 4/1to3/1"/>
    </vehicle>
    <vehicle id="183" depart="18.30">
        <route edges="3/3to3/4"/>
    </vehicle>
    <vehicle id="184" depart="18.40">
        <route edges="0/5to0/6 0/6to1/6 1/6to1/5 1/5to1/4 1/4to1/3"/>
    </vehicle>
    <vehicle id="185" depart="18.50">
        <route edges="3/3to4/3 4/3to4/4 4/4to3/4 3/4to2/4 2/4to1/4 1/4to0/4"/>
    </vehicle>
    <vehicle id="186" depart="18.60">
        <route edges="0/9to0/8 0/8to0/7 0/7to0/6 0/6to0/5 0/5to0/4 0/4to0/3 0/3to0/2"/>
    </vehicle>
    <vehicle id="187" depart="18.70">
        <route edges="2/1to2/0 2/0to1/0 1/0to0/0 0/0to0/1 0/1to1/1"/>
    </vehicle>
    <vehicle id="188" depart="18.80">
        <route edges="3/1to2/1 2/1to2/2 2/2to2/3 2/3to1/3 1/3to1/4 1/4to2/4"/>
    </vehicle>
    <vehicle id="189" depart="18.90">
        <route edges="right5to4/5 4/5to3/5 3/5to2/5 2/5to1/5 1/5to0/5 0/5to0/6 0/6to1/6"/>
    </vehicle>
    <vehicle id="190" depart="19.00">
        <route edges="3/2to4/2 4/2to4/3 4/3to4/4 4/4to3/4 3/4to2/4 2/4to1/4 1/4to0/4 0/4to0/5 0/5to1/5"/>
    </vehicle>
    <vehicle id="191" depart="19.10">
        <route edges="2/7to1/7 1/7to1/6 1/6to2/6 2/6to3/6 3/6to3/7 3/7to4/7 4/7to4/8"/>
    </vehicle>
    <vehicle id="192" depart="19.20">
        <route edges="left6to0/6 0/6to0/7 0/7to1/7 1/7to2/7 2/7to3/7 3/7to3/8"/>
    </vehicle>
    <vehicle id="193" depart="19.30">
        <route edges="2/3to2/4 2/4to2/5 2/5to3/5 3/5to3/6 3/6to2/6"/>
    </vehicle>
    <vehicle id="194" depart="19.40">
        <route edges="1/8to0/8 0/8to0/7 0/7to0/6 0/6to0/5 0/5to0/4 0/4to1/4 1/4to2/4 2/4to3/4 3/4to3/5"/>
    </vehicle>
    <vehicle id="195" depart="19.50">
        <route edges="0/1to0/0 0/0to1/0 1/0to1/1 1/1to1/2 1/2to0/2 0/2to0/1"/>
    </vehicle>
    <vehicle id="196" depart="19.60">
        <route edges="2/8to3/8 3/8to3/7 3/7to2/7 2/7to2/8 2/8to1/8"/>
    </vehicle>
    <vehicle id="197" depart="19.70">
        <route edges="2/2to2/3 2/3to2/4 2/4to3/4 3/4to3/3"/>
    </vehicle>
    <vehicle id="198" depart="19.80">
        <route edges="1/1to2/1 2/1to2/2 2/2to3/2 3/2to4/2 4/2to4/1"/>
    </vehicle>
    <vehicle id="199" depart="19.90">
        <route edges="4/5to3/5 3/5to3/6 3/6to3/7 3/7to3/8 3/8to4/8"/>
    </vehicle>
    <vehicle id="200" depart="20.00">
        <route edges="0/3to0/4 0/4to1/4 1/4to2/4"/>
    </vehicle>
    <vehicle id="201" depart="20.10">
        <route edges="2/7to3/7 3/7to3/8 3/8to2/8 2/8to1/8 1/8to1/9"/>
    </vehicle>
    <vehicle id="202" depart="20.20">
        <route edges="1/9to1/8 1/8to1/7 1/7to1/6 1/6to1/5 1/5to1/4 1/4to1/3 1/3to1/2 1/2to1/1 1/1to2/1 2/1to2/0 2/0tobottom2"/>
    </vehicle>
    <vehicle id="203" depart="20.30">
        <route edges="3/3to4/3 4/3to4/2 4/2to4/1 4/1to3/1 3/1to3/2"/>
    </vehicle>
    <vehicle id="204" depart="20.40">
        <route edges="0/3to0/4 0/4to0/5 0/5to0/6 0/6to0/7 0/7to1/7 1/7to1/8 1/8to0/8 0/8to0/7"/>
    </vehicle>
    <vehicle id="205" depart="20.50">
        <route edges="1/5to2/5 2/5to2/4 2/4to2/3 2/3to2/2 2/2to2/1 2/1to2/0 2/0to1/0 1/0tobottom1"/>
    </vehicle>
    <vehicle id="206" depart="20.60">
        <route edges="1/5to2/5 2/5to2/6 2/6to2/7 2/7to2/8 2/8to1/8 1/8to0/8 0/8to0/9 0/9to1/9"/>
    </vehicle>
    <vehicle id="207" depart="20.70">
        <route edges="3/8to4/8 4/8to4/7 4/7to3/7 3/7to2/7 2/7to2/8 2/8to1/8 1/8to0/8 0/8toleft8"/>
    </vehicle>
    <vehicle id="208" depart="20.80">
        <route edges="2/5to2/4 2/4to2/3 2/3to2/2 2/2to3/2 3/2to4/2 4/2to4/1"/>
    </vehicle>
    <vehicle id="209" depart="20.90">