<configuration>
	<input>
	    <net-file value="grid.net.xml"/>
	    <route-files value="grid-0p5.rou.xml"/>
	</input>
	<time>
		<begin value="0"/>
		<end value="3600"/>
		<step-length value="0.01"/>
	</time>
<remote-port value="51958"/><seed value="0"/><random value="false"/></configuration>