<?xml version="1.0"?>
<!-- generated on 2017-07-30 13:06:22.068697 by $Id: randomTrips.py 23999 2017-04-21 09:04:47Z behrisch $
  options: -n grid.net.xml -o grid-0p5/grid-0p5.trips.xml -r grid-0p5/grid-0p5.rou.xml -e 100 -p 0.5
-->
<routes xmlns:xsi="http://www.w3.org/2001/XMLSchema-instance" xsi:noNamespaceSchemaLocation="http://sumo.dlr.de/xsd/routes_file.xsd">
    <trip id="0" depart="0.00" from="2/9to1/9" to="2/9to1/9"/>
    <trip id="1" depart="0.50" from="4/5to3/5" to="4/2to4/3"/>
    <trip id="2" depart="1.00" from="2/9to3/9" to="1/6to2/6"/>
    <trip id="3" depart="1.50" from="1/6to1/7" to="2/3to3/3"/>
    <trip id="4" depart="2.00" from="0/8to0/9" to="3/3to3/4"/>
    <trip id="5" depart="2.50" from="1/3to1/2" to="2/1to3/1"/>
    <trip id="6" depart="3.00" from="2/7to3/7" to="1/2to2/2"/>
    <trip id="7" depart="3.50" from="1/5to2/5" to="2/7to3/7"/>
    <trip id="8" depart="4.00" from="2/6to2/7" to="3/0to2/0"/>
    <trip id="9" depart="4.50" from="bottom3to3/0" to="2/9to1/9"/>
    <trip id="10" depart="5.00" from="4/8to4/9" to="1/9to1/8"/>
    <trip id="11" depart="5.50" from="1/7to0/7" to="3/0to4/0"/>
    <trip id="12" depart="6.00" from="1/2to0/2" to="3/7to3/8"/>
    <trip id="13" depart="6.50" from="0/0to0/1" to="2/1to2/2"/>
    <trip id="14" depart="7.00" from="4/6to4/7" to="3/9to2/9"/>
    <trip id="15" depart="7.50" from="0/7to0/6" to="1/3to1/2"/>
    <trip id="16" depart="8.00" from="left0to0/0" to="3/2to3/1"/>
    <trip id="17" depart="8.50" from="3/8to3/7" to="0/2to0/3"/>
    <trip id="18" depart="9.00" from="4/4to4/5" to="2/8to2/9"/>
    <trip id="19" depart="9.50" from="2/2to2/3" to="4/0to3/0"/>
    <trip id="20" depart="10.00" from="4/8to4/9" to="4/0to4/1"/>
    <trip id="21" depart="10.50" from="1/3to0/3" to="4/4to3/4"/>
    <trip id="22" depart="11.00" from="right1to4/1" to="0/7to0/6"/>
    <trip id="23" depart="11.50" from="1/4to0/4" to="4/1toright1"/>
    <trip id="24" depart="12.00" from="2/3to2/4" to="4/4to4/5"/>
    <trip id="25" depart="12.50" from="0/1to0/0" to="1/8to1/9"/>
    <trip id="26" depart="13.00" from="left9to0/9" to="2/4to1/4"/>
    <trip id="27" depart="13.50" from="3/2to3/1" to="4/7to4/8"/>
    <trip id="28" depart="14.00" from="left3to0/3" to="4/9to4/8"/>
    <trip id="29" depart="14.50" from="3/2to2/2" to="3/6to2/6"/>
    <trip id="30" depart="15.00" from="1/4to1/5" to="4/4toright4"/>
    <trip id="31" depart="15.50" from="3/7to3/8" to="1/1to1/0"/>
    <trip id="32" depart="16.00" from="2/3to1/3" to="2/5to3/5"/>
    <trip id="33" depart="16.50" from="2/8to2/7" to="3/0to3/1"/>
    <trip id="34" depart="17.00" from="0/2to1/2" to="1/8to1/7"/>
    <trip id="35" depart="17.50" from="3/6to3/7" to="1/9to0/9"/>
    <trip id="36" depart="18.00" from="3/7to3/8" to="0/5to0/6"/>
    <trip id="37" depart="18.50" from="4/6to4/5" to="2/1to2/2"/>
    <trip id="38" depart="19.00" from="1/1to0/1" to="1/7to1/8"/>
    <trip id="39" depart="19.50" from="4/0to3/0" to="3/1to2/1"/>
    <trip id="40" depart="20.00" from="right1to4/1" to="1/8to1/7"/>
    <trip id="41" depart="20.50" from="3/4to4/4" to="0/0to1/0"/>
    <trip id="42" depart="21.00" from="bottom1to1/0" to="2/6to2/5"/>
    <trip id="43" depart="21.50" from="left7to0/7" to="1/8to2/8"/>
    <trip id="44" depart="22.00" from="0/4to1/4" to="4/2to3/2"/>
    <trip id="45" depart="22.50" from="1/5to0/5" to="4/1toright1"/>
    <trip id="46" depart="23.00" from="left1to0/1" to="1/5to1/4"/>
    <trip id="47" depart="23.50" from="0/3to0/2" to="4/8to4/7"/>
    <trip id="48" depart="24.00" from="3/7to2/7" to="4/4toright4"/>
    <trip id="49" depart="24.50" from="3/8to2/8" to="3/0to2/0"/>
    <trip id="50" depart="25.00" from="1/2to2/2" to="1/3to0/3"/>
    <trip id="51" depart="25.50" from="1/5to2/5" to="1/4to0/4"/>
    <trip id="52" depart="26.00" from="3/2to3/3" to="1/8to1/7"/>
    <trip id="53" depart="26.50" from="2/4to2/3" to="3/4to3/5"/>
    <trip id="54" depart="27.00" from="4/4to3/4" to="0/8toleft8"/>
    <trip id="55" depart="27.50" from="1/9to1/8" to="4/6to4/5"/>
    <trip id="56" depart="28.00" from="right7to4/7" to="3/6to2/6"/>
    <trip id="57" depart="28.50" from="3/3to4/3" to="1/2to0/2"/>
    <trip id="58" depart="29.00" from="4/7to4/6" to="4/0to4/1"/>
    <trip id="59" depart="29.50" from="0/2to1/2" to="1/7to0/7"/>
    <trip id="60" depart="30.00" from="3/4to4/4" to="3/5to3/4"/>
    <trip id="61" depart="30.50" from="3/1to2/1" to="0/2to0/1"/>
    <trip id="62" depart="31.00" from="top0to0/9" to="2/6to3/6"/>
    <trip id="63" depart="31.50" from="1/7to0/7" to="0/4to0/5"/>
    <trip id="64" depart="32.00" from="0/0to1/0" to="2/7to3/7"/>
    <trip id="65" depart="32.50" from="0/7to0/6" to="4/9totop4"/>
    <trip id="66" depart="33.00" from="2/4to2/3" to="1/4to1/5"/>
    <trip id="67" depart="33.50" from="4/3to4/4" to="2/3to3/3"/>
    <trip id="68" depart="34.00" from="2/7to2/6" to="2/6to3/6"/>
    <trip id="69" depart="34.50" from="right8to4/8" to="1/0tobottom1"/>
    <trip id="70" depart="35.00" from="2/3to2/2" to="1/4to0/4"/>
    <trip id="71" depart="35.50" from="1/8to1/7" to="2/0to1/0"/>
    <trip id="72" depart="36.00" from="0/4to1/4" to="3/1to4/1"/>
    <trip id="73" depart="36.50" from="4/3to3/3" to="4/0to4/1"/>
    <trip id="74" depart="37.00" from="4/9to4/8" to="4/1to4/2"/>
    <trip id="75" depart="37.50" from="2/4to3/4" to="2/7to2/6"/>
    <trip id="76" depart="38.00" from="right1to4/1" to="4/2to4/1"/>
    <trip id="77" depart="38.50" from="3/7to2/7" to="0/2to1/2"/>
    <trip id="78" depart="39.00" from="2/7to3/7" to="1/9totop1"/>
    <trip id="79" depart="39.50" from="1/6to0/6" to="3/4to3/3"/>
    <trip id="80" depart="40.00" from="1/8to1/9" to="0/2toleft2"/>
    <trip id="81" depart="40.50" from="left0to0/0" to="2/9to1/9"/>
    <trip id="82" depart="41.00" from="1/8to0/8" to="4/0to4/1"/>
    <trip id="83" depart="41.50" from="1/5to1/6" to="3/5to4/5"/>
    <trip id="84" depart="42.00" from="2/8to2/9" to="2/4to3/4"/>
    <trip id="85" depart="42.50" from="2/0to2/1" to="2/8to1/8"/>
    <trip id="86" depart="43.00" from="0/8to0/9" to="0/6to0/5"/>
    <trip id="87" depart="43.50" from="2/6to1/6" to="2/1to3/1"/>
    <trip id="88" depart="44.00" from="3/4to2/4" to="2/8to3/8"/>
    <trip id="89" depart="44.50" from="right3to4/3" to="1/9to2/9"/>
    <trip id="90" depart="45.00" from="1/2to2/2" to="3/0to3/1"/>
    <trip id="91" depart="45.50" from="2/2to3/2" to="0/1to1/1"/>
    <trip id="92" depart="46.00" from="4/8to4/9" to="3/5to3/6"/>
    <trip id="93" depart="46.50" from="4/2to4/3" to="2/4to2/5"/>
    <trip id="94" depart="47.00" from="2/8to2/9" to="2/0to3/0"/>
    <trip id="95" depart="47.50" from="0/0to0/1" to="1/8to1/7"/>
    <trip id="96" depart="48.00" from="bottom3to3/0" to="0/5to1/5"/>
    <trip id="97" depart="48.50" from="2/0to3/0" to="2/3to2/4"/>
    <trip id="98" depart="49.00" from="0/7to0/8" to="1/0to2/0"/>
    <trip id="99" depart="49.50" from="1/3to2/3" to="3/2to4/2"/>
    <trip id="100" depart="50.00" from="0/5to0/4" to="3/8to3/7"/>
    <trip id="101" depart="50.50" from="4/1to3/1" to="0/4toleft4"/>
    <trip id="102" depart="51.00" from="4/9to3/9" to="0/5to0/4"/>
    <trip id="103" depart="51.50" from="left7to0/7" to="1/6to0/6"/>
    <trip id="104" depart="52.00" from="1/1to1/0" to="2/0tobottom2"/>
    <trip id="105" depart="52.50" from="0/9to0/8" to="3/6to2/6"/>
    <trip id="106" depart="53.00" from="0/7to1/7" to="3/1to3/2"/>
    <trip id="107" depart="53.50" from="0/1to0/2" to="4/4toright4"/>
    <trip id="108" depart="54.00" from="1/2to0/2" to="3/0tobottom3"/>
    <trip id="109" depart="54.50" from="top1to1/9" to="2/9to3/9"/>
    <trip id="110" depart="55.00" from="2/2to3/2" to="0/0toleft0"/>
    <trip id="111" depart="55.50" from="3/7to2/7" to="1/4to1/3"/>
    <trip id="112" depart="56.00" from="1/1to0/1" to="3/1to3/2"/>
    <trip id="113" depart="56.50" from="3/0to3/1" to="2/2to2/3"/>
    <trip id="114" depart="57.00" from="1/6to2/6" to="2/6to2/7"/>
    <trip id="115" depart="57.50" from="2/1to1/1" to="1/3to2/3"/>
    <trip id="116" depart="58.00" from="1/3to1/2" to="0/1to0/2"/>
    <trip id="117" depart="58.50" from="2/5to2/4" to="1/6to1/5"/>
    <trip id="118" depart="59.00" from="0/0to0/1" to="0/0to1/0"/>
    <trip id="119" depart="59.50" from="4/5to4/4" to="2/8to1/8"/>
    <trip id="120" depart="60.00" from="2/7to3/7" to="1/4to2/4"/>
    <trip id="121" depart="60.50" from="1/8to1/7" to="1/9to1/8"/>
    <trip id="122" depart="61.00" from="3/8to2/8" to="1/4to1/3"/>
    <trip id="123" depart="61.50" from="4/6to3/6" to="1/9to2/9"/>
    <trip id="124" depart="62.00" from="1/1to1/2" to="2/7to3/7"/>
    <trip id="125" depart="62.50" from="3/9to2/9" to="4/4to4/5"/>
    <trip id="126" depart="63.00" from="3/7to3/6" to="0/3toleft3"/>
    <trip id="127" depart="63.50" from="2/7to2/8" to="3/9to3/8"/>
    <trip id="128" depart="64.00" from="4/3to3/3" to="0/7to1/7"/>
    <trip id="129" depart="64.50" from="2/8to2/7" to="0/5to0/6"/>
    <trip id="130" depart="65.00" from="right1to4/1" to="1/9to0/9"/>
    <trip id="131" depart="65.50" from="1/6to0/6" to="4/2to4/3"/>
    <trip id="132" depart="66.00" from="3/9to2/9" to="1/9totop1"/>
    <trip id="133" depart="66.50" from="3/9to4/9" to="2/9to3/9"/>
    <trip id="134" depart="67.00" from="left7to0/7" to="2/0to3/0"/>
    <trip id="135" depart="67.50" from="3/4to2/4" to="2/1to2/2"/>
    <trip id="136" depart="68.00" from="0/4to0/5" to="2/3to2/2"/>
    <trip id="137" depart="68.50" from="3/8to3/9" to="2/5to3/5"/>
    <trip id="138" depart="69.00" from="top4to4/9" to="1/7to2/7"/>
    <trip id="139" depart="69.50" from="2/5to2/4" to="4/9toright9"/>
    <trip id="140" depart="70.00" from="4/0to3/0" to="0/4to0/5"/>
    <trip id="141" depart="70.50" from="0/5to0/6" to="0/4toleft4"/>
    <trip id="142" depart="71.00" from="3/6to3/5" to="0/8toleft8"/>
    <trip id="143" depart="71.50" from="0/8to0/7" to="3/4to2/4"/>
    <trip id="144" depart="72.00" from="2/7to3/7" to="4/9totop4"/>
    <trip id="145" depart="72.50" from="0/4to0/5" to="1/8to1/7"/>
    <trip id="146" depart="73.00" from="1/6to2/6" to="2/3to3/3"/>
    <trip id="147" depart="73.50" from="right5to4/5" to="1/8to1/7"/>
    <trip id="148" depart="74.00" from="1/3to1/4" to="4/9toright9"/>
    <trip id="149" depart="74.50" from="2/1to2/2" to="1/1to1/2"/>
    <trip id="150" depart="75.00" from="1/7to2/7" to="3/4to3/5"/>
    <trip id="151" depart="75.50" from="4/4to4/3" to="2/6to2/7"/>
    <trip id="152" depart="76.00" from="3/1to2/1" to="0/0to1/0"/>
    <trip id="153" depart="76.50" from="1/7to1/6" to="2/8to1/8"/>
    <trip id="154" depart="77.00" from="3/4to3/5" to="3/0to2/0"/>
    <trip id="155" depart="77.50" from="4/6to3/6" to="0/8to1/8"/>
    <trip id="156" depart="78.00" from="1/4to0/4" to="3/7to2/7"/>
    <trip id="157" depart="78.50" from="3/6to4/6" to="1/4to1/5"/>
    <trip id="158" depart="79.00" from="0/3to0/2" to="4/3to3/3"/>
    <trip id="159" depart="79.50" from="2/2to2/3" to="3/7to3/8"/>
    <trip id="160" depart="80.00" from="1/4to0/4" to="2/3to3/3"/>
    <trip id="161" depart="80.50" from="1/5to1/4" to="2/3to2/2"/>
    <trip id="162" depart="81.00" from="4/9to4/8" to="3/9to2/9"/>
    <trip id="163" depart="81.50" from="4/1to4/2" to="3/0tobottom3"/>
    <trip id="164" depart="82.00" from="2/0to3/0" to="1/8to1/9"/>
    <trip id="165" depart="82.50" from="1/0to0/0" to="1/5to0/5"/>
    <trip id="166" depart="83.00" from="1/3to1/2" to="0/2toleft2"/>
    <trip id="167" depart="83.50" from="1/4to1/5" to="2/8to1/8"/>
    <trip id="168" depart="84.00" from="1/9to1/8" to="2/9to3/9"/>
    <trip id="169" depart="84.50" from="0/8to0/7" to="3/6to4/6"/>
    <trip id="170" depart="85.00" from="3/9to2/9" to="4/9to3/9"/>
    <trip id="171" depart="85.50" from="1/4to1/3" to="1/7to1/8"/>
    <trip id="172" depart="86.00" from="1/7to0/7" to="4/4to4/3"/>
    <trip id="173" depart="86.50" from="4/3to4/2" to="3/3to3/2"/>
    <trip id="174" depart="87.00" from="left6to0/6" to="0/3toleft3"/>
    <trip id="175" depart="87.50" from="0/8to0/7" to="2/0tobottom2"/>
    <trip id="176" depart="88.00" from="0/7to0/6" to="0/1to0/0"/>
    <trip id="177" depart="88.50" from="bottom0to0/0" to="0/8to0/9"/>
    <trip id="178" depart="89.00" from="4/5to4/4" to="1/1to2/1"/>
    <trip id="179" depart="89.50" from="top1to1/9" to="1/8to2/8"/>
    <trip id="180" depart="90.00" from="bottom0to0/0" to="3/1to4/1"/>
    <trip id="181" depart="90.50" from="0/2to1/2" to="0/3to0/4"/>
    <trip id="182" depart="91.00" from="3/0to4/0" to="1/3to1/2"/>
    <trip id="183" depart="91.50" from="3/4to4/4" to="3/0tobottom3"/>
    <trip id="184" depart="92.00" from="3/6to3/5" to="2/5to2/4"/>
    <trip id="185" depart="92.50" from="0/2to0/1" to="1/9to2/9"/>
    <trip id="186" depart="93.00" from="1/1to2/1" to="1/6to2/6"/>
    <trip id="187" depart="93.50" from="4/8to4/7" to="1/6to1/5"/>
    <trip id="188" depart="94.00" from="3/5to4/5" to="4/1to3/1"/>
    <trip id="189" depart="94.50" from="2/7to2/8" to="3/7to4/7"/>
    <trip id="190" depart="95.00" from="1/3to1/4" to="0/8to1/8"/>
    <trip id="191" depart="95.50" from="3/3to4/3" to="2/4to3/4"/>
    <trip id="192" depart="96.00" from="bottom2to2/0" to="1/2to2/2"/>
    <trip id="193" depart="96.50" from="2/1to2/2" to="1/9to1/8"/>
    <trip id="194" depart="97.00" from="4/5to4/4" to="1/2to1/3"/>
    <trip id="195" depart="97.50" from="4/1to3/1" to="3/3to2/3"/>
    <trip id="196" depart="98.00" from="2/6to1/6" to="2/3to2/2"/>
    <trip id="197" depart="98.50" from="right2to4/2" to="1/7to0/7"/>
    <trip id="198" depart="99.00" from="3/4to2/4" to="2/9totop2"/>
    <trip id="199" depart="99.50" from="left6to0/6" to="2/6to2/5"/>
</routes>
