<?xml version="1.0" encoding="UTF-8"?>

<!-- generated on 06/18/17 17:23:29 by SUMO duarouter Version 0.29.0
<?xml version="1.0" encoding="UTF-8"?>

<configuration xmlns:xsi="http://www.w3.org/2001/XMLSchema-instance" xsi:noNamespaceSchemaLocation="http://sumo.dlr.de/xsd/duarouterConfiguration.xsd">

    <input>
        <net-file value="philly.net.xml"/>
        <trip-files value="philly.trips.xml"/>
    </input>

    <output>
        <output-file value="philly.rou.xml"/>
    </output>

</configuration>
-->

<routes xmlns:xsi="http://www.w3.org/2001/XMLSchema-instance" xsi:noNamespaceSchemaLocation="http://sumo.dlr.de/xsd/routes_file.xsd">
    <vehicle id="0" depart="0.00">
        <route edges="170020502#1 170020502#2 170020502#3 170020502#4 170020502#5 170020502#6 170020502#7 170020502#8 170020502#9 170020502#10 170020502#11 170020502#12 170020502#13 170020502#14 170020502#15 170020502#16 271683344#10 271683344#11 137469643#1 -12178710#0"/>
    </vehicle>
    <vehicle id="1" depart="3.00">
        <route edges="63063021#1 288494850#0 288494850#1 424807266 424807267 -62202668#2 -62202668#1 -62202668#0 -424830809#1 -424830809#0 486653634#0 486653634#1 12136389#0 12136389#1 62202553#0 62202553#1 104524019 42706630 386984972#0 386984972#1 104523987#0 104523987#1 104523987#2 104523987#3 104523987#4 104523987#5 173544047#7 12165839#0 12165839#1 12165839#2 12165839#3 12165839#4 12165839#5 12165839#6 12152840#3 12152840#4 12152840#5 12152840#6 -12118427#1"/>
    </vehicle>
    <vehicle id="2" depart="6.00">
        <route edges="62202013#4 62202013#5 62202013#6 62202013#7 424830809#0 424830809#1 62202668#0 62202668#1 62202668#2 42706664#0 42706664#1 42706664#2 42706664#3 42706664#4 42706664#5 42706664#6 42706664#7 -60185767#2"/>
    </vehicle>
    <vehicle id="3" depart="9.00">
        <route edges="132508897#1 132508897#2 132508897#3 394179820#0 394179820#1 394179820#2 394179820#3 394179820#4 196355327#0 196355327#1 196355327#2 196355327#3 196355327#4 196355327#5 394179819 -196393940#0 -262962060 -262962059 -42706545 12143393 62203076#0 62203076#1 60185767#0 60185767#1 60185767#2 60185767#3 60185767#4 60185767#5 62203287#8 62203287#9 145605479#0 145605479#1 195807753 63060730#0 63060730#1 63060735#0 30908217#0 30908217#1 30908217#2 30908217#3 30908217#4 30908229#0 30908229#1 12171207 62202015 288495353#0 288495353#1 288494847#0 62202576#3 62202576#4 30908209 30908208 424804080#0 424804080#1 424804079 62202100#0 62202100#1 62202100#2 62202100#3 134099300 134099344#0 134099344#1 134099344#2 134099344#3 134099344#4 134099344#5 337636374 423965627#1 423965610 423965624#0 423965624#1 423965624#2 423965611 423965629#0 423965629#1 423965629#2 423965629#3 423965629#4 423965629#5 423965629#6 423965613 423965618#0 423965618#1 423965615 41959235#2 49961130#0 49961130#1 49961130#2 49961130#3 49961130#4 49961130#5 49961130#6 49961130#7 49961130#8 49961130#9 49961130#10 49961130#11 49961130#12 49961130#13 49961130#14 49961130#15 49961130#16"/>
    </vehicle>
    <vehicle id="4" depart="12.00">
        <route edges="435391646#4 435391646#5 435391646#6 435391646#7 435391646#8 435391646#9 49960973#15 49960973#16 196384431#6 196384431#7 196384431#8 196384431#9 196384431#10 196384431#11 196384431#12 196384431#13 124145104#0 124145104#1 124145104#2 12115223#0 12115223#1 12115223#2 62153734#0 62153734#1 62153734#2 62153734#3 424830811 62154274#0 62154274#1 62154274#2 62154274#3 62154274#4 62154274#5 62154274#6 62154274#7 62154274#8 424829494 424829496#0 424829496#1 424829496#2 424829496#3 424829493#0 424829493#1 424829493#2 424829495#0 424829495#1 424829495#2 424829495#3 12158602#0 12158602#1 12158602#2 12158602#3 12158602#4 12158602#5 12158602#6 12158602#7 12158602#8 196355331#1 196355331#2 196355331#3 196355331#4"/>
    </vehicle>
    <vehicle id="5" depart="15.00">
        <route edges="387422123#0 424829492#0 424829492#1 424829492#2 424829492#3 424829492#4 424829491 12116014 424804082#0 424804082#1 424804082#2 424804082#3 195656295#0 195656295#1 195656295#2 12171198#0 12171198#1 121643859#0 121643859#1 121643859#2 63060593 30908183 30908184 170020486#0 170020486#1 170020486#2 170020486#3 170020486#4 170020486#5 170020486#6 170020479 170020485#0 170020485#1 170020485#2 170020485#3"/>
    </vehicle>
    <vehicle id="6" depart="18.00">
        <route edges="30908058#3 30908058#4 30908050#1 121643778#6 121643778#7 424804073#0 424804073#1 62153733#0 62153733#1 121643807 50192960 50192961#0 12203877#0 12203877#1 12203877#2"/>
    </vehicle>
    <vehicle id="7" depart="21.00">
        <route edges="267077089#0 -12167325#1 423965626#2 423965616 423965608#0 423965608#1 423965608#2 423965608#3 423965608#4 43572940#0 -43572940#0 12200160#0 12200160#1 12200160#2 423965604#0 423965604#1 424828076 134099301 134099367#0 12158274#9 12158274#10 62202024#2"/>
    </vehicle>
    <vehicle id="8" depart="24.00">
        <route edges="12172946#7 12207382#5 -49960969#1 -49960969#0 -277075522#9 -277075522#8 -277075522#7 -277075522#6 -277075522#5 -277075522#4 -277075522#3 -277075522#2 -277075522#1 -277075522#0 423965624#2 423965611 423965629#0 423965629#1 423965629#2 423965629#3 423965629#4 423965629#5 423965629#6 423965613 423965618#0 423965618#1 423965615 41957022#0 41957022#1 41957022#2 12152475#0 12152475#1 12151878#3 12151878#4"/>
    </vehicle>
    <vehicle id="9" depart="27.00">
        <route edges="62203285#5 62203285#6 62203285#7 62203285#8 62203285#9 62203285#10 62203285#11 62203285#12 62203285#13 62203285#14 62203285#15 -387162759#1 -387162759#0 -43571133#2 -43571133#1 -43571133#0 62203157#0 62203157#1 387163157#0 387163157#1 404615578 145605479#0 145605479#1 195807753 404615577 12167191#0 12167191#1 12167191#2 12167191#3 12167191#4 424829488 63060589#6 63060589#7 63060589#8 63060589#9 63060589#10 63060589#11 12139665#0 12139665#1 12139665#2 12139665#3 12139665#4 12139665#5"/>
    </vehicle>
    <vehicle id="10" depart="30.00">
        <route edges="134099354#3 134099354#4 134099354#5 134099354#6 43570897 30908343#0 30908343#1 195807754 63060731#0 63060731#1 404615578 145605479#0 145605479#1 195807753 404615577 12167191#0 12167191#1 387162762#7 387162762#8 49960966#1 49960966#2 49960966#3 49960966#4 49960966#5 49960966#6 49960966#7 49960966#8 49960966#9 49960966#10 49960966#11 49960966#12 49960966#13 49960966#14 49960966#15 49960966#16 49960966#17 49960966#18 424830813 424830812#0 424830812#1 424830812#2 424830812#3 424830812#4 333012805#3 333012805#4 333012805#5 333012805#6"/>
    </vehicle>
    <vehicle id="11" depart="33.00">
        <route edges="12150213#12 12150213#13 12150213#14 12150213#15 12150213#16 12150213#17 12150213#18 12150213#19 12150213#20 12150213#21 12150213#22 12150213#23 12150213#24 12150213#25 12150213#26 12150213#27 424804090#4 424804090#5 424804090#6 424804090#7 424804090#8 334903476#5 334903476#6 334903476#7 334903476#8 334903476#9 334903476#10 334903476#11 334903476#12 334903476#13 173543402#4 173543402#5"/>
    </vehicle>
    <vehicle id="12" depart="36.00">
        <route edges="12142551#8 195815880 195815883#0 195815859#10 195815859#11 195815859#12 195815859#13 195815859#14 195815859#15 195815859#16 195815859#17 12143393 62203076#0 62203076#1 60185767#0 60185767#1 60185767#2 60185767#3 60185767#4 60185767#5 62203287#8 62203287#9 145605479#0 145605479#1 195807753 63060730#0 63060730#1 63060735#0 30908217#0 30908217#1 30908217#2 30908217#3 30908217#4 30908229#0 30908229#1 12171207 62202015 288495353#0 288495353#1 288494847#0 62202576#3 62202576#4 30908209 30908208 424804080#0 424804080#1 424804079 62202100#0 62202100#1 62202100#2 62202100#3 134099300 134099344#0 134099344#1 134099344#2 134099344#3 134099344#4 134099344#5 134099344#6 396449758 43572940#0 43572940#1 423965602#0 423965602#1 423965593 423965606#0 423965606#1 423965606#2 423965598 423965600 423965603 423965592 423965590 423965605#0 423965605#1 49960969#0 49960969#1 49960969#2 134099289#12 134099289#13"/>
    </vehicle>
    <vehicle id="13" depart="39.00">
        <route edges="196355328#11 137469643#6 137469643#7 12165839#5 12165839#6 12165839#7 12165839#8 12165839#9 12165839#10 12165839#11 170020500#11 170020500#12 170020500#13 170020500#14 170020500#15 170020500#16 170020500#17 30908180#0 30908180#1 335828093#0 335828093#1 335828094#0 335828094#1 335828094#2 335828094#3 335828094#4 424830812#4 424830812#5 424830812#6 424830812#7 424830812#8 424830812#9 62202366#0 62202366#1 62202366#2 62202366#3 12203877#0 12203877#1 12203877#2 12203877#3"/>
    </vehicle>
    <vehicle id="15" depart="45.00">
        <route edges="49960957#4 49960957#5 49960957#6 49960957#7 49960957#8 49960957#9 49960957#10 271683344#2 271683344#3 271683344#4 271683344#5 271683344#6 271683344#7 271683344#8 271683344#9 271683344#10 271683344#11 271683344#12 271683344#13 271683344#14 288495820#3 127806909 424804087 173543405#0 173543405#1 204883042 204883041 424804085 195804549 62202559 12202652 63063019#0 63063019#1 127806656#0 127806656#1 127806656#2 424807258#0 424807258#1 30908207#0 30908207#1 30908207#2 30908207#3 62202368#0 62202368#1 62202576#0 62202576#1 62202576#2 62202576#3 62202576#4 30908209 30908208 424804080#0 424804080#1 424804079 62202100#0 62202100#1 62202100#2 62202100#3 134099300 134099344#0 134099344#1 134099344#2 134099344#3 134099344#4 134099344#5 337636374 423965627#1"/>
    </vehicle>
    <vehicle id="16" depart="48.00">
        <route edges="12151908#0 12151908#1 -277075522#3 -277075522#2 12112698#23 12112698#24 12112698#25 12112698#26 12112698#27 12112698#28 12112698#29 12112698#30 12112698#31 12112698#32 12112698#33 121643859#3 121643859#4 121643859#5 424804093 424804095#0 424804095#1 30908249#0 30908249#1 30908248 62202009 30908240 30908242#0 30908242#1 30908242#2 387162761#0 134099354#6 43570897 30908343#0 30908343#1 195807754 206643340#0"/>
    </vehicle>
    <vehicle id="18" depart="54.00">
        <route edges="62203160 30908377 30908378#0 30908378#1 30908378#2 30908378#3 424769001#0 424769001#1 43539373#3 43539373#4 43539373#5 43539373#6 43539373#7 43539373#8 62203157#0 62203157#1 387163157#0 387163157#1 404615578 145605479#0 145605479#1 195807753 404615577 12167191#0 12167191#1 12167191#2 12167191#3 12167191#4 424829488 424829489#0 424829489#1 424829489#2 424829489#3 -62202668#2 -62202668#1 -62202668#0 -424830809#1 -424830809#0 486653634#0 486653634#1 12136389#0 12136389#1 62202553#0 62202553#1 104524019 42706630 386984972#0 386984972#1 104523987#0 104523987#1 104523987#2 104523987#3 104523987#4 104523987#5 173544047#7 12165839#0 12165839#1 12165839#2 12165839#3 12165839#4 12165839#5 12165839#6 12165839#7 12165839#8 12165839#9 12165839#10 12165839#11 12165839#12 320334299#1 320334299#2 320334299#3 196355328#6 -12122518 12171601#1 12171601#2"/>
    </vehicle>
    <vehicle id="19" depart="57.00">
        <route edges="195815859#11 195815859#12 195815859#13 195815859#14 195815859#15 195815859#16 195815859#17 12143393 62203076#0 62203076#1 60185767#0 60185767#1 60185767#2 60185767#3 60185767#4 60185767#5 62203287#8 62203287#9 145605479#0 145605479#1 195807753 404615577 12167191#0 12167191#1 387162762#7 387162762#8 49960966#1 49960966#2 49960966#3 49960966#4 49960966#5 49960966#6 49960966#7 49960966#8 49960966#9 49960966#10 49960966#11 49960966#12 49960966#13 49960966#14 49960966#15 49960966#16 49960966#17 49960966#18 424830813 424830812#0 424830812#1 424830812#2 424830812#3 424830812#4 424830812#5 424830812#6 424830812#7 424830812#8 424830812#9 62202366#0 62202366#1 62202366#2 62202366#3 12203877#0 12203877#1 12203877#2 12203877#3 12203877#4 12203877#5 12203877#6 12203877#7 196386417#4 196386417#5 196386417#6 196386417#7 194837496 12206313#24 12206313#25 12206313#26"/>
    </vehicle>
    <vehicle id="20" depart="60.00">
        <route edges="196386417#9 196386417#10 196386417#11 12158284#1 121643778#0 121643778#1 12206313#20 12206313#21 12206313#22 194837499#2 12184764#1 12157360"/>
    </vehicle>
    <vehicle id="21" depart="63.00">
        <route edges="49961130#2 385910224#6 124145104#0 124145104#1 124145104#2 12115223#0 12115223#1 12115223#2 62153734#0 62153734#1 62153734#2 62153734#3 424830811 62154274#0 62154274#1 12171198#1 121643859#0 121643859#1 121643859#2 63060593 30908183 30908184 170020486#0 170020486#1 170020486#2 170020486#3 170020486#4 170020486#5 170020486#6 170020479 170020485#0 170020485#1 170020485#2 170020485#3 492442039 492442040 204883011#0 204883011#1 62202575#0 62202575#1 424829490 32165055 127806656#0 127806656#1 127806656#2 424807258#0 424807258#1"/>
    </vehicle>
    <vehicle id="22" depart="66.00">
        <route edges="206999066#1 206999066#2 206999066#3 206999066#4 121643859#1 121643859#2 121643859#3 121643859#4 121643859#5 424804093 424804095#0 424804095#1 30908249#0 30908249#1 30908248 62202009 30908240 30908242#0 30908242#1 30908323 62201998 30908331 63060589#0 63060589#1 63060589#2 63060589#3 63060589#4 12167190#5 12167190#6 387162762#8 49960966#1"/>
    </vehicle>
    <vehicle id="23" depart="69.00">
        <route edges="12163114#8 12163114#9 -12167316 385910224#12 30908171#11 30908171#12 30908171#13 30908171#14 30908171#15 30908171#16 30908171#17 30908171#18 30908171#19 30908171#20 12177696#2"/>
    </vehicle>
    <vehicle id="24" depart="72.00">
        <route edges="198495238#4 62203347#7 62203347#8 134099304 134099351#0 134099351#1 134099351#2 134099351#3 134099351#4 134099351#5 423965628#0 423965628#1 423965619 423965622#0 423965622#1 423965609 12159752#0 12159752#1 12159752#2 423965627#0 423965627#1 423965610 423965624#0 423965624#1 423965624#2 423965611 423965629#0 423965629#1 423965629#2 423965629#3 423965629#4 423965629#5 423965629#6 423965613 423965618#0 12115223#1 12115223#2 62153733#0 30908058#0 30908058#1 30908058#2 30908058#3 30908058#4 30908058#5 -30908057 12204356#0 12204356#1 12184764#0"/>
    </vehicle>
    <vehicle id="25" depart="75.00">
        <route edges="49960973#22 49960973#23 49960973#24 12206313#7 12206313#8 12206313#9 12206313#10 12206313#11 12206313#12 12206313#13 12206313#14 423967512#0 423967512#1 423967512#2 423965614 12115223#0 12115223#1 12115223#2 62153734#0 62153734#1 62153734#2 62153734#3 424830811 62154274#0 62154274#1 62154274#2 62154274#3 62154274#4 62154274#5 404615580#1 424804092 424804094"/>
    </vehicle>
    <vehicle id="26" depart="78.00">
        <route edges="12207382#6 -63074238#0 -49960969#0 -277075522#9 -277075522#8 -277075522#7 -277075522#6 -277075522#5 -277075522#4 -277075522#3 -277075522#2 -277075522#1 -277075522#0 423965624#2 423965611 423965629#0 423965629#1 423965629#2 423965629#3 267077088#0 -267077088#0"/>
    </vehicle>
    <vehicle id="27" depart="81.00">
        <route edges="423385529#1 12160701#0 12160701#1 12160701#2 196386417#0 196386417#1 196386417#2 196386417#3 196386417#4 196386417#5 196386417#6 196386417#7 196386417#8 196386417#9 196386417#10 196386417#11 12158284#1 121643778#0 121643778#1 121643778#2 121643778#3 121643778#4 121643778#5 121643778#6 121643778#7 424804073#0 424804073#1 62153734#0 62153734#1 62153734#2 62153734#3 424830811 62154274#0 62154274#1 12171198#1 121643859#0 121643859#1 121643859#2 121643859#3 121643859#4 121643859#5 424804093 424804095#0 424804095#1 30908249#0 30908249#1 30908248 62202009 30908240 30908242#0 30908242#1 30908242#2 387162761#0 134099354#6 43570897 30908343#0 30908343#1 195807754 206643340#0 206643340#1 206643340#2 12167194#0 12167194#1"/>
    </vehicle>
    <vehicle id="28" depart="84.00">
        <route edges="424830812#1 424830812#2 424830812#3 335828094#5 335828094#6 335828094#7 335828094#8 335828094#9 63060594 30908182 170020467 121643859#2 121643859#3 121643859#4 121643859#5 424804093 424804095#0 424804077 30908211 30908213 12113129#1 62202001 121643866 30908177 12114017#0 12114017#1 40087391"/>
    </vehicle>
    <vehicle id="29" depart="87.00">
        <route edges="-12169047#1 -12169047#0 30908323 62201998 30908331 63060589#0 63060589#1 63060589#2 63060589#3 63060589#4 63060589#5 424829489#0 424829489#1 424829489#2 424829489#3 -62202668#2 -62202668#1 -62202668#0 -424830809#1 -424830809#0 486653634#0 486653634#1 12136389#0 12136389#1 62202553#0 62202553#1 104524019 42706630 386984972#0 386984972#1 104523987#0 104523987#1 104523987#2 104523987#3 104523987#4 104523987#5 173544047#7 12165839#0 12165839#1 12165839#2 12165839#3 12165839#4 12165839#5 12165839#6 12165839#7 12165839#8 12165839#9 12165839#10 12165839#11 12165839#12 12165839#13 12165839#14 12165839#15 325217183#0 325217183#1 12133967#0 12133967#1 -12133967#1"/>
    </vehicle>
    <vehicle id="31" depart="93.00">
        <route edges="137469640#7 12162665#5 12162665#6 -423965606#1 -423965606#0 -423965593 -423965602#1 -423965602#0 -43572940#1 -43572940#0 423965623 423965617 423965621#0 423965621#1 423965612 28309149#0 28309149#1 424765877 424765882#0 424765882#1 424765876 12190038#9 12190038#10 196393938 -196393938"/>
    </vehicle>
    <vehicle id="32" depart="96.00">
        <route edges="137469640#8 12161313#12 12161313#13 12161313#14 12161313#15 12161313#16 12161313#17 12112698#18 12112698#19 12112698#20 12112698#21 12112698#22 -277075522#1 -277075522#0 -486653622#5 -486653622#4 -486653622#3 -486653622#2 -486653622#1 -486653622#0 30908171#24 206999066#0 206999066#1 206999066#2 206999066#3 206999066#4 63060585 62153280 62153281 62202003#6 62202003#7 62154284 62154274#7 62154274#8 424829494 62202366#0 62202366#1 62202366#2 62202366#3 50192961#1 50192961#2 50192961#3 50192961#4 12197696#0 12197696#1 424804083#0 424804083#1 -424804076#1 -424804076#0 -424804075 -61293628#1 -61293628#0 61293665#0"/>
    </vehicle>
    <vehicle id="34" depart="102.00">
        <route edges="271683344#13 271683344#14 271683344#15 271683344#16 271683344#17 271683344#18 271683344#19 334903476#7 334903476#8 334903476#9 334903476#10 334903476#11 334903476#12 334903476#13 334903476#14 334903476#15 334903476#16 334903476#17 334903476#18 334903476#19 334903476#20 334903476#21 334903476#22 334903476#23 334903476#24 334903476#25 334903476#26 12177329#0 12177329#1 12177329#2 12177329#3 12177329#4 63063021#0 63063021#1 288494850#0 288494850#1 424807266 424807267 42706664#0 42706664#1 42706664#2"/>
    </vehicle>
    <vehicle id="35" depart="105.00">
        <route edges="424829489#0 424829489#1 43570716#0 43570716#1 42706664#2 42706664#3 42706664#4 42706664#5 12182905#3 12182905#4 195815843#0 195815843#1 12142551#0 12142551#1"/>
    </vehicle>
    <vehicle id="36" depart="108.00">
        <route edges="30908331 63060589#0 63060589#1 63060589#2 63060589#3 63060589#4 63060589#5 424829489#0 424829489#1 424829489#2 424829489#3 -62202668#2 -62202668#1 -62202668#0 -424830809#1 -424830809#0 486653634#0 486653634#1 12136389#0 12136389#1 62202553#0 62202553#1 104524019 42706630 386984972#0 386984972#1 104523987#0 104523987#1 104523987#2 104523987#3 104523987#4 104523987#5 173544047#7 12165839#0 12165839#1 12165839#2 12165839#3 12165839#4 12165839#5 12165839#6 12165839#7 12165839#8 12165839#9 12165839#10 12116604#0 12116604#1 -12116604#1"/>
    </vehicle>
    <vehicle id="37" depart="111.00">
        <route edges="12200160#2 423965604#0 423965604#1 424828076 134099301 134099367#0 134099367#1 134099367#2 424804078 424804077 30908211 30908213 424829497 288494848#0 288494848#1 424829499 424829498 127806783#0 127806783#1 424807268#0 424807268#1 104526289#0 104526289#1 62202555 62202554#0 62202554#1 63063024#0 63063024#1 288494849#0 288494849#1 288494849#2 288494849#3"/>
    </vehicle>
    <vehicle id="38" depart="114.00">
        <route edges="170020500#4 170020500#5 170020500#6 170020500#7 170020500#8 170020500#9 170020500#10 170020500#11 170020500#12 170020500#13 170020500#14 170020500#15 170020500#16 170020500#17 30908180#0 30908180#1 335828093#0 335828093#1 335828094#0 335828094#1 335828094#2 335828094#3 335828094#4 335828094#5 335828094#6 335828094#7 335828094#8 335828094#9 63060594 30908182 170020467 170020472#0 170020472#1 170020472#2 170020472#3 170020472#4 170020472#5 170020472#6 170020472#7 170020472#8 170020472#9 170020472#10 170020472#11 170020472#12 170020472#13 170020472#14 170020472#15 170020472#16 170020472#17 170020472#18 170020472#19 170020472#20 170020472#21 170020472#22 12163114#5 240537791#0 -240537791#0"/>
    </vehicle>
    <vehicle id="39" depart="117.00">
        <route edges="424764852 12149417#0 12149417#1 12149417#2 12149417#3 291433361#0 291433361#1 291433361#2 132508433 424765885 424765878 424765881#0 12190038#10 196393950#0 196393950#1 196393950#2 196393950#3 196393950#4 196393950#5 196393950#6 196393950#7 196393950#8 196393950#9 30908374 30908375 387162758#0 387162758#1 387162758#2 387162758#3 387162758#4 387162758#5 387162758#6 387162758#7 387162758#8 387162758#9 387162758#10 12150213#0 12150213#1 12150213#2 12150213#3 12150213#4 12150213#5 12150213#6 12150213#7 12150213#8 12150213#9 12150213#10 12150213#11 12150213#12 12150213#13 12150213#14 12150213#15 12150213#16 12150213#17 12150213#18 12150213#19 12150213#20 12171853#5 12133902#0 12178716#1"/>
    </vehicle>
    <vehicle id="40" depart="120.00">
        <route edges="424804090#7 424804090#8 334903476#5 334903476#6 334903476#7 334903476#8 334903476#9 334903476#10 334903476#11 334903476#12 334903476#13 334903476#14 334903476#15 334903476#16 334903476#17 334903476#18 334903476#19 334903476#20 334903476#21 334903476#22 334903476#23 334903476#24 334903476#25 334903476#26 12177329#0 12177329#1 12177329#2 12177329#3 12177329#4 63063021#0 63063021#1 288494850#0 288494850#1 424807266 424807267 486653635 334310264#0 334310264#1 334310264#2 334310264#3 49960966#4 49960966#5 49960966#6 49960966#7 49960966#8 49960966#9 49960966#10 49960966#11 49960966#12 49960966#13 49960966#14 49960966#15 49960966#16 49960966#17 49960966#18 424830813 424830812#0 424830812#1 424830812#2 424830812#3 424830812#4 424830812#5 424830812#6 424830812#7 424830812#8 424830812#9 62202366#0 12178808 424804082#0 424804082#1 424804082#2 424804082#3 195656295#0 195656295#1 195656295#2 195656295#3 195656295#4"/>
    </vehicle>
    <vehicle id="41" depart="123.00">
        <route edges="32165052 32165055 127806656#0 127806656#1 127806656#2 424807258#0 424807258#1 42784695 62202555 42784689 127806930 62202553#0 62202553#1 104524019 42706630 386984972#0 386984972#1 104523987#0 104523987#1 104523987#2 104523987#3 104523987#4 104523987#5 104523987#6 104523987#7 104523987#8 104523987#9 104523987#10 104523987#11 104523987#12 271683344#18 271683344#19 334903476#7 12165936 -12165936"/>
    </vehicle>
    <vehicle id="42" depart="126.00">
        <route edges="49960978#2 49960978#3 196393939 12115813#0 12115813#1 387162756#0 387162756#1 424765881#0 424765881#1 424765879 423965628#0 423965628#1 423965619 423965622#0 423965622#1 423965609 12159752#0 12159752#1 12200160#1 12177698#1 134099344#4 134099344#5 134099344#6 396449758 43572940#0 -43572940#0"/>
    </vehicle>
    <vehicle id="43" depart="129.00">
        <route edges="424804076#1 387422123#0 424829492#0 424829492#1 424829492#2 424829492#3 424829492#4 424829491 12116014 424804082#0 424804082#1 424804082#2 424804082#3 195656295#0 195656295#1 195656295#2 195656295#3 195656295#4 424804081#0 424804081#1 12116067#0 12116067#1 -12166069#4 12115223#2 62153733#0 30908058#0"/>
    </vehicle>
    <vehicle id="44" depart="132.00">
        <route edges="-12178843#2 -12178843#1 -12178843#0 -12112482 -63074238#12 -63074238#11 -63074238#10 -63074238#9 -63074238#8 -63074238#7 -63074238#6 -63074238#5 -63074238#4 -63074238#3 -63074238#2 -63074238#1 -63074238#0 -49960969#0 -277075522#9 -277075522#8 -277075522#7 -277075522#6 -277075522#5 -277075522#4 -277075522#3 -277075522#2 -277075522#1 -277075522#0 -486653622#5 -486653622#4 -486653622#3 -486653622#2 -486653622#1 -486653622#0 30908171#24 206999066#0 206999066#1 206999066#2 206999066#3 206999066#4 63060585 62153280 62153281 62202003#6 62202003#7 62154284 62154274#7 62154274#8 424829494 62202366#0 12178808 424804082#0 424804082#1 424804082#2 424804082#3"/>
    </vehicle>
    <vehicle id="45" depart="135.00">
        <route edges="137469643#10 137469643#11 137469643#12 137469643#13 137469643#14 104524024#0 104524024#1 104524024#2 62202575#0 62202575#1 424829490 32165055 127806656#0 127806656#1 127806656#2 424807258#0 424807258#1 30908207#0 30908207#1 30908207#2 30908207#3 62202368#0 62202368#1 62202576#0 49960966#13 49960966#14 49960966#15 49960966#16 49960966#17 49960966#18 424830813 424830812#0 424830812#1 424830812#2 424830812#3 424830812#4 424830812#5 424830812#6 424830812#7 424830812#8 424830812#9 62202366#0 12178808 424804082#0 424804082#1 424804082#2 424804082#3 195656295#0 195656295#1 195656295#2 195656295#3 12109553#0 12109553#1"/>
    </vehicle>
    <vehicle id="46" depart="138.00">
        <route edges="-486653622#0 486653622#0 486653622#1 486653622#2 486653622#3 486653622#4 486653622#5 277075522#0 277075522#1 277075522#2 277075522#3 277075522#4 277075522#5 277075522#6 277075522#7 277075522#8 277075522#9 49960969#0 63074238#0 63074238#1 63074238#2 63074238#3 63074238#4 63074238#5 63074238#6 63074238#7 63074238#8 63074238#9 63074238#10 63074238#11 63074238#12 12112482 12178843#0 12178843#1 12178843#2 -12178843#2"/>
    </vehicle>
    <vehicle id="47" depart="141.00">
        <route edges="12178196#4 12178196#5 12178196#6 12178196#7 12178196#8 12178196#9 423965622#1 423965609 12159752#0 12159752#1 12200160#1 12200160#2 423965604#0 423965604#1 424828076 134099301 134099367#0 134099367#1 134099367#2 424804078 424804077 30908211 30908213 424829497 288494848#0 288494848#1 424829499 49960966#12 49960966#13 49960966#14 49960966#15 49960966#16 49960966#17 49960966#18 424830813 424830812#0 424830812#1 424830812#2 424830812#3 424830812#4 424830812#5 424830812#6 424830812#7 424830812#8 424830812#9 62202366#0 62202366#1 62202366#2 62202366#3 12203877#0 12203877#1 12203877#2 12203877#3 12203877#4 12206313#28 12206313#29 12206313#30 12206313#31 12206313#32 61293665#2 423385530#0 423385530#1 423385530#2 423385530#3 196386425#0 196386425#1 196386425#2 196386425#3 196386425#4 196386425#5 196386425#6 196386425#7 385022879 12164007#0"/>
    </vehicle>
    <vehicle id="48" depart="144.00">
        <route edges="12202013 12142723#2 12142723#3 12142723#4 12142723#5 12142723#6 196207110#0 196207110#1 196355327#2 196355327#3 196355327#4 196355327#5 394179819 -196393940#0 -262962060 -262962059 -42706545 12143393 62203076#0 62203076#1 60185767#0 60185767#1 60185767#2 60185767#3 60185767#4 60185767#5 62203287#8 62203287#9 145605479#0 145605479#1 195807753 63060730#0 63060730#1 63060735#0 30908217#0 30908217#1 30908217#2 30908217#3 30908217#4 30908229#0 30908229#1 12171207 62202015 288495353#0 288495353#1 288494847#0 62202576#3 62202576#4 30908209 30908208 424804080#0 424804080#1 424804079 62202100#0 62202100#1 62202100#2 62202100#3 134099300 134099344#0 134099344#1 134099344#2 134099344#3 134099344#4 134099344#5 337636374 423965627#1 423965610 423965624#0 423965624#1 423965624#2 423965611 423965629#0 423965629#1 423965629#2 423965629#3 423965629#4 423965629#5 423965629#6 423965613 423965618#0 423965618#1 423965615 41959235#2 49961130#0 49961130#1 49961130#2 49961130#3 49961130#4 49961130#5 49961130#6 49961130#7 49961130#8 49961130#9 49961130#10 49960973#21 -12155347#2 12205718"/>
    </vehicle>
    <vehicle id="49" depart="147.00">
        <route edges="12163322 12166697#1 12161313#16 12161313#17 12161313#18 12161313#19 12161313#20 198495279"/>
    </vehicle>
    <vehicle id="50" depart="150.00">
        <route edges="49960957#11 49960957#12 388533148#0 388533148#1"/>
    </vehicle>
    <vehicle id="52" depart="156.00">
        <route edges="62202929#1 62202929#2 62203360#0 62203360#1 62203360#2 291433361#0 291433361#1 291433361#2 132508433 424765885 424765878 424765881#0 12190038#10 196393950#0 196393950#1 196393950#2 196393950#3 196393950#4 196393950#5 196393950#6 62202931#0 62202931#1 62202931#2 62202916#0 62202916#1 387163157#0 387163157#1 404615578 145605479#0 145605479#1 195807753 404615577 12167191#0 12167191#1 387162762#7 387162762#8 49960966#1 49960966#2 49960966#3 49960966#4 49960966#5 49960966#6 49960966#7 49960966#8 49960966#9 49960966#10 49960966#11 49960966#12 49960966#13 49960966#14 49960966#15 49960966#16 49960966#17 49960966#18 424830813 170020486#6 170020479 170020485#0 170020485#1 170020485#2 170020485#3 492442039 492442040"/>
    </vehicle>
    <vehicle id="53" depart="159.00">
        <route edges="423965625#2 423965620#0 -12163331#0 423965629#6 423965613 12116067#3 435391646#0 435391646#1 435391646#2 385910224#9 385910224#10 195656293#6 -12157687#2"/>
    </vehicle>
    <vehicle id="54" depart="162.00">
        <route edges="32163457#4 336018362 336018361#0 49960966#17 49960966#18 424830813 170020486#6 170020479 170020485#0 170020485#1 170020485#2 194837500 335853588 335853587#0 30908180#1 335828093#0 87326584#0 -87326584#0"/>
    </vehicle>
    <vehicle id="55" depart="165.00">
        <route edges="435391646#3 12163114#14 -12157338 12157338"/>
    </vehicle>
    <vehicle id="57" depart="171.00">
        <route edges="170020467 170020472#0 170020472#1 170020472#2 170020472#3 170020472#4 170020472#5 170020472#6 170020472#7 170020472#8 170020472#9 170020472#10 170020472#11 423965629#0 423965629#1 423965629#2 423965629#3 423965629#4 423965629#5 423965629#6 423965613 423965618#0 423965618#1 423965615 41959235#2 49961130#0 49961130#1 49961130#2 49961130#3 49961130#4 49961130#5 49961130#6 49961130#7 49961130#8 49961130#9 12202261#0"/>
    </vehicle>
    <vehicle id="58" depart="174.00">