<?xml version="1.0"?>
<!-- generated on 2017-06-18 17:22:07.606617 by $Id: randomTrips.py 22929 2017-02-13 14:38:39Z behrisch $
  options: -n philly.net.xml -o philly.trips.xml -p 3
-->
<routes xmlns:xsi="http://www.w3.org/2001/XMLSchema-instance" xsi:noNamespaceSchemaLocation="http://sumo.dlr.de/xsd/routes_file.xsd">
    <trip id="0" depart="0.00" from="170020502#1" to="-12178710#0"/>
    <trip id="1" depart="3.00" from="63063021#1" to="-12118427#1"/>
    <trip id="2" depart="6.00" from="62202013#4" to="-60185767#2"/>
    <trip id="3" depart="9.00" from="132508897#1" to="49961130#16"/>
    <trip id="4" depart="12.00" from="435391646#4" to="196355331#4"/>
    <trip id="5" depart="15.00" from="387422123#0" to="170020485#3"/>
    <trip id="6" depart="18.00" from="30908058#3" to="12203877#2"/>
    <trip id="7" depart="21.00" from="267077089#0" to="62202024#2"/>
    <trip id="8" depart="24.00" from="12172946#7" to="12151878#4"/>
    <trip id="9" depart="27.00" from="62203285#5" to="12139665#5"/>
    <trip id="10" depart="30.00" from="134099354#3" to="333012805#6"/>
    <trip id="11" depart="33.00" from="12150213#12" to="173543402#5"/>
    <trip id="12" depart="36.00" from="12142551#8" to="134099289#13"/>
    <trip id="13" depart="39.00" from="196355328#11" to="12203877#3"/>
    <trip id="14" depart="42.00" from="12133402#0" to="348815354#4"/>
    <trip id="15" depart="45.00" from="49960957#4" to="423965627#1"/>
    <trip id="16" depart="48.00" from="12151908#0" to="206643340#0"/>
    <trip id="17" depart="51.00" from="12163114#21" to="12109553#1"/>
    <trip id="18" depart="54.00" from="62203160" to="12171601#2"/>
    <trip id="19" depart="57.00" from="195815859#11" to="12206313#26"/>
    <trip id="20" depart="60.00" from="196386417#9" to="12157360"/>
    <trip id="21" depart="63.00" from="49961130#2" to="424807258#1"/>
    <trip id="22" depart="66.00" from="206999066#1" to="49960966#1"/>
    <trip id="23" depart="69.00" from="12163114#8" to="12177696#2"/>
    <trip id="24" depart="72.00" from="198495238#4" to="12184764#0"/>
    <trip id="25" depart="75.00" from="49960973#22" to="424804094"/>
    <trip id="26" depart="78.00" from="12207382#6" to="-267077088#0"/>
    <trip id="27" depart="81.00" from="423385529#1" to="12167194#1"/>
    <trip id="28" depart="84.00" from="424830812#1" to="40087391"/>
    <trip id="29" depart="87.00" from="-12169047#1" to="-12133967#1"/>
    <trip id="30" depart="90.00" from="63060591#0" to="60950258"/>
    <trip id="31" depart="93.00" from="137469640#7" to="-196393938"/>
    <trip id="32" depart="96.00" from="137469640#8" to="61293665#0"/>
    <trip id="33" depart="99.00" from="12114186" to="12113077#1"/>
    <trip id="34" depart="102.00" from="271683344#13" to="42706664#2"/>
    <trip id="35" depart="105.00" from="424829489#0" to="12142551#1"/>
    <trip id="36" depart="108.00" from="30908331" to="-12116604#1"/>
    <trip id="37" depart="111.00" from="12200160#2" to="288494849#3"/>
    <trip id="38" depart="114.00" from="170020500#4" to="-240537791#0"/>
    <trip id="39" depart="117.00" from="424764852" to="12178716#1"/>
    <trip id="40" depart="120.00" from="424804090#7" to="195656295#4"/>
    <trip id="41" depart="123.00" from="32165052" to="-12165936"/>
    <trip id="42" depart="126.00" from="49960978#2" to="-43572940#0"/>
    <trip id="43" depart="129.00" from="424804076#1" to="30908058#0"/>
    <trip id="44" depart="132.00" from="-12178843#2" to="424804082#3"/>
    <trip id="45" depart="135.00" from="137469643#10" to="12109553#1"/>
    <trip id="46" depart="138.00" from="-486653622#0" to="-12178843#2"/>
    <trip id="47" depart="141.00" from="12178196#4" to="12164007#0"/>
    <trip id="48" depart="144.00" from="12202013" to="12205718"/>
    <trip id="49" depart="147.00" from="12163322" to="198495279"/>
    <trip id="50" depart="150.00" from="49960957#11" to="388533148#1"/>
    <trip id="51" depart="153.00" from="12133902#0" to="49960957#10"/>
    <trip id="52" depart="156.00" from="62202929#1" to="492442040"/>
    <trip id="53" depart="159.00" from="423965625#2" to="-12157687#2"/>
    <trip id="54" depart="162.00" from="32163457#4" to="-87326584#0"/>
    <trip id="55" depart="165.00" from="435391646#3" to="12157338"/>
    <trip id="56" depart="168.00" from="196207115#0" to="194837494#14"/>
    <trip id="57" depart="171.00" from="170020467" to="12202261#0"/>
    <trip id="58" depart="174.00" from="12206313#1" to="12171853#4"/>
    <trip id="59" depart="177.00" from="196355328#11" to="12162654#0"/>
    <trip id="60" depart="180.00" from="12150213#16" to="62202554#1"/>
    <trip id="61" depart="183.00" from="195815859#14" to="121643859#4"/>
    <trip id="62" depart="186.00" from="387422116#6" to="-12163331#1"/>
    <trip id="63" depart="189.00" from="334903476#13" to="12167190#1"/>
    <trip id="64" depart="192.00" from="12174752#3" to="423965590"/>
    <trip id="65" depart="195.00" from="424830812#9" to="194837499#2"/>
    <trip id="66" depart="198.00" from="12161313#13" to="196207116#3"/>
    <trip id="67" depart="201.00" from="137469643#12" to="12159833#1"/>
    <trip id="68" depart="204.00" from="271683344#17" to="12165780#0"/>
    <trip id="69" depart="207.00" from="30908229#0" to="-62203073#2"/>
    <trip id="70" depart="210.00" from="-12167316" to="60950258"/>
    <trip id="71" depart="213.00" from="12201374#0" to="62203287#2"/>
    <trip id="72" depart="216.00" from="195656293#2" to="12125219#0"/>
    <trip id="73" depart="219.00" from="12163322" to="50192961#0"/>
    <trip id="74" depart="222.00" from="394179820#3" to="12174744#4"/>
    <trip id="75" depart="225.00" from="334903476#5" to="12178196#10"/>
    <trip id="76" depart="228.00" from="-12166069#4" to="30908232#1"/>
    <trip id="77" depart="231.00" from="12112698#26" to="62202929#1"/>
    <trip id="78" depart="234.00" from="387162761#2" to="12149073#2"/>
    <trip id="79" depart="237.00" from="12184839#2" to="12158602#7"/>
    <trip id="80" depart="240.00" from="12206424" to="336018361#6"/>
    <trip id="81" depart="243.00" from="424804074#2" to="145605499#1"/>
    <trip id="82" depart="246.00" from="291433361#0" to="12190096"/>
    <trip id="83" depart="249.00" from="12200287" to="12138964#6"/>
    <trip id="84" depart="252.00" from="49960973#16" to="195656295#0"/>
    <trip id="85" depart="255.00" from="288494849#5" to="12171853#18"/>
    <trip id="86" depart="258.00" from="12161325" to="-63074238#9"/>
    <trip id="87" depart="261.00" from="124145103#1" to="12158274#6"/>
    <trip id="88" depart="264.00" from="288495820#3" to="-43571133#2"/>
    <trip id="89" depart="267.00" from="12142551#0" to="121643807"/>
    <trip id="90" depart="270.00" from="170020472#27" to="12150213#16"/>
    <trip id="91" depart="273.00" from="-486653622#0" to="-12157725#2"/>
    <trip id="92" depart="276.00" from="-12178843#2" to="12151888#3"/>
    <trip id="93" depart="279.00" from="388533148#0" to="62203347#2"/>
    <trip id="94" depart="282.00" from="335828094#9" to="43570716#1"/>
    <trip id="95" depart="285.00" from="170020472#8" to="62203359#0"/>
    <trip id="96" depart="288.00" from="12156058#0" to="50171184#1"/>
    <trip id="97" depart="291.00" from="12161313#20" to="49961130#11"/>
    <trip id="98" depart="294.00" from="43539373#0" to="196393939"/>
    <trip id="99" depart="297.00" from="-277075522#3" to="388533150#0"/>
    <trip id="100" depart="300.00" from="65068691#3" to="12112698#31"/>
    <trip id="101" depart="303.00" from="12156408#2" to="12150213#15"/>
    <trip id="102" depart="306.00" from="387162762#3" to="49960973#3"/>
    <trip id="103" depart="309.00" from="127806656#2" to="124145104#2"/>
    <trip id="104" depart="312.00" from="195815859#14" to="12157725#4"/>
    <trip id="105" depart="315.00" from="12206313#3" to="173544048#0"/>
    <trip id="106" depart="318.00" from="12190038#3" to="62154274#0"/>
    <trip id="107" depart="321.00" from="12161313#10" to="30908378#2"/>
    <trip id="108" depart="324.00" from="-377654464#0" to="435391646#2"/>
    <trip id="109" depart="327.00" from="334658117#11" to="30908187"/>
    <trip id="110" depart="330.00" from="12207382#0" to="12142491#12"/>
    <trip id="111" depart="333.00" from="12167190#9" to="12133404#0"/>
    <trip id="112" depart="336.00" from="196355329#2" to="424829499"/>
    <trip id="113" depart="339.00" from="134099301" to="-277075522#3"/>
    <trip id="114" depart="342.00" from="196355317#1" to="12112698#1"/>
    <trip id="115" depart="345.00" from="-12167278#0" to="12163114#6"/>
    <trip id="116" depart="348.00" from="196207110#8" to="424830812#7"/>
    <trip id="117" depart="351.00" from="12114213" to="435391640#1"/>
    <trip id="118" depart="354.00" from="12207382#6" to="12121842#1"/>
    <trip id="119" depart="357.00" from="12149178#0" to="12113663#1"/>
    <trip id="120" depart="360.00" from="12177696#5" to="196355331#5"/>
    <trip id="121" depart="363.00" from="196207115#3" to="42706664#8"/>
    <trip id="122" depart="366.00" from="365918084#1" to="62203287#7"/>
    <trip id="123" depart="369.00" from="12167190#9" to="12164007#0"/>
    <trip id="124" depart="372.00" from="-12176958#2" to="12174744#1"/>
    <trip id="125" depart="375.00" from="-12121842#0" to="96323140#0"/>
    <trip id="126" depart="378.00" from="334903476#6" to="12186858"/>
    <trip id="127" depart="381.00" from="424768999#1" to="333931865#0"/>
    <trip id="128" depart="384.00" from="12159833#25" to="334903476#22"/>
    <trip id="129" depart="387.00" from="12139665#9" to="12142723#5"/>
    <trip id="130" depart="390.00" from="196207117#0" to="387162760#1"/>
    <trip id="131" depart="393.00" from="61294556#1" to="96326105#2"/>
    <trip id="132" depart="396.00" from="387422116#2" to="423965625#0"/>
    <trip id="133" depart="399.00" from="12178716#1" to="132508920#5"/>
    <trip id="134" depart="402.00" from="12157170#1" to="134099365#0"/>
    <trip id="135" depart="405.00" from="12142491#8" to="-12203864#2"/>
    <trip id="136" depart="408.00" from="12207382#7" to="196384431#8"/>
    <trip id="137" depart="411.00" from="62202930#2" to="12177709"/>
    <trip id="138" depart="414.00" from="12111986" to="271683344#9"/>
    <trip id="139" depart="417.00" from="12200287" to="424829495#3"/>
    <trip id="140" depart="420.00" from="-12125219#1" to="30908249#1"/>
    <trip id="141" depart="423.00" from="12171853#7" to="196207117#3"/>
    <trip id="142" depart="426.00" from="12171198#1" to="12149082#6"/>
    <trip id="143" depart="429.00" from="63060585" to="335828094#2"/>
    <trip id="144" depart="432.00" from="12171853#27" to="-62203076#0"/>
    <trip id="145" depart="435.00" from="334903477#4" to="196355313#1"/>
    <trip id="146" depart="438.00" from="62154274#2" to="12172946#6"/>
    <trip id="147" depart="441.00" from="12150213#20" to="62153252"/>
    <trip id="148" depart="444.00" from="12160575#0" to="12165845#0"/>
    <trip id="149" depart="447.00" from="132508920#10" to="49960957#7"/>
    <trip id="150" depart="450.00" from="334310264#1" to="12161365"/>
    <trip id="151" depart="453.00" from="424768999#0" to="30908346"/>
    <trip id="152" depart="456.00" from="104524034#8" to="334658117#10"/>
    <trip id="153" depart="459.00" from="195807761#6" to="334903477#17"/>
    <trip id="154" depart="462.00" from="12159752#0" to="196355328#3"/>
    <trip id="155" depart="465.00" from="62203347#7" to="-12157725#3"/>
    <trip id="156" depart="468.00" from="424804093" to="-12142298#0"/>
    <trip id="157" depart="471.00" from="62153254" to="12149082#1"/>
    <trip id="158" depart="474.00" from="12174247#0" to="-12117014"/>
    <trip id="159" depart="477.00" from="-32121486" to="12184589#1"/>
    <trip id="160" depart="480.00" from="195815859#5" to="-12164010#0"/>
    <trip id="161" depart="483.00" from="12116604#0" to="12172946#6"/>
    <trip id="162" depart="486.00" from="423965592" to="42706574"/>
    <trip id="163" depart="489.00" from="12149417#2" to="30908214#1"/>
    <trip id="164" depart="492.00" from="385022880#0" to="12163331#1"/>
    <trip id="165" depart="495.00" from="12181427#3" to="334903476#14"/>
    <trip id="166" depart="498.00" from="12139329#0" to="134099344#5"/>
    <trip id="167" depart="501.00" from="30908058#1" to="12119705#1"/>
    <trip id="168" depart="504.00" from="-30908057" to="12177696#1"/>
    <trip id="169" depart="507.00" from="63074238#1" to="377654464#0"/>
    <trip id="170" depart="510.00" from="333012805#3" to="12163114#11"/>
    <trip id="171" depart="513.00" from="-62202668#0" to="196386417#5"/>
    <trip id="172" depart="516.00" from="12113077#9" to="-365918766"/>
    <trip id="173" depart="519.00" from="65068691#1" to="12155347#1"/>
    <trip id="174" depart="522.00" from="62153251" to="170020500#10"/>
    <trip id="175" depart="525.00" from="62202024#1" to="12142491#19"/>
    <trip id="176" depart="528.00" from="-12122518" to="424804094"/>
    <trip id="177" depart="531.00" from="195656295#4" to="385910224#4"/>
    <trip id="178" depart="534.00" from="333316188" to="12139665#19"/>
    <trip id="179" depart="537.00" from="-262962059" to="127806930"/>
    <trip id="180" depart="540.00" from="32165052" to="30908214#2"/>
    <trip id="181" depart="543.00" from="170020472#2" to="104524010#0"/>
    <trip id="182" depart="546.00" from="12203956#0" to="12161313#17"/>
    <trip id="183" depart="549.00" from="12142491#18" to="12203877#3"/>
    <trip id="184" depart="552.00" from="424829492#0" to="195807761#0"/>
    <trip id="185" depart="555.00" from="-12121842#4" to="12151897#4"/>
    <trip id="186" depart="558.00" from="49960966#8" to="12186741#1"/>
    <trip id="187" depart="561.00" from="-12164007#2" to="12184759#0"/>
    <trip id="188" depart="564.00" from="196355327#2" to="-12121842#4"/>
    <trip id="189" depart="567.00" from="132508717#4" to="-12205714"/>
    <trip id="190" depart="570.00" from="62202003#1" to="486653622#5"/>
    <trip id="191" depart="573.00" from="137469643#4" to="-12133404#1"/>
    <trip id="192" depart="576.00" from="-424830809#1" to="424807263#0"/>
    <trip id="193" depart="579.00" from="170020472#9" to="62153768#1"/>
    <trip id="194" depart="582.00" from="12139665#4" to="-12189884#0"/>
    <trip id="195" depart="585.00" from="30908183" to="63074238#3"/>
    <trip id="196" depart="588.00" from="12117009#0" to="12204353#1"/>
    <trip id="197" depart="591.00" from="62202931#0" to="104526289#0"/>
    <trip id="198" depart="594.00" from="12157742" to="424829489#2"/>
    <trip id="199" depart="597.00" from="62154274#7" to="-12157725#0"/>
    <trip id="200" depart="600.00" from="-12206424" to="334310264#1"/>
    <trip id="201" depart="603.00" from="387422116#9" to="30908088"/>
    <trip id="202" depart="606.00" from="12178716#1" to="12166069#1"/>
    <trip id="203" depart="609.00" from="12152840#7" to="137469643#11"/>
    <trip id="204" depart="612.00" from="30908171#20" to="62203285#6"/>
    <trip id="205" depart="615.00" from="404615580#1" to="49960957#12"/>
    <trip id="206" depart="618.00" from="-12117009#3" to="104524034#6"/>
    <trip id="207" depart="621.00" from="195815859#15" to="62153255"/>
    <trip id="208" depart="624.00" from="124145103#0" to="196207116#16"/>
    <trip id="209" depart="627.00" from="62202366#0" to="12204357"/>
    <trip id="210" depart="630.00" from="62203285#1" to="12159833#2"/>
    <trip id="211" depart="633.00" from="104523987#2" to="173543402#3"/>
    <trip id="212" depart="636.00" from="30908058#1" to="387162758#4"/>
    <trip id="213" depart="639.00" from="334903476#14" to="-62203076#1"/>
    <trip id="214" depart="642.00" from="12160575#1" to="335828094#6"/>
    <trip id="215" depart="645.00" from="194837499#5" to="134099289#8"/>
    <trip id="216" depart="648.00" from="423965618#0" to="132508920#11"/>
    <trip id="217" depart="651.00" from="12181427#4" to="424804090#4"/>
    <trip id="218" depart="654.00" from="424804090#9" to="62203359#0"/>
    <trip id="219" depart="657.00" from="12167280#0" to="12116197#6"/>
    <trip id="220" depart="660.00" from="62203360#1" to="32163457#0"/>
    <trip id="221" depart="663.00" from="12117023#2" to="62202013#5"/>
    <trip id="222" depart="666.00" from="170020500#12" to="195807761#6"/>
    <trip id="223" depart="669.00" from="170020472#11" to="132508717#1"/>
    <trip id="224" depart="672.00" from="12206313#15" to="348815354#7"/>
    <trip id="225" depart="675.00" from="12167314#0" to="196355328#6"/>
    <trip id="226" depart="678.00" from="134099344#5" to="196386417#21"/>
    <trip id="227" depart="681.00" from="62153251" to="271683344#17"/>
    <trip id="228" depart="684.00" from="-12161325" to="30908213"/>
    <trip id="229" depart="687.00" from="62202931#2" to="12149178#1"/>
    <trip id="230" depart="690.00" from="134099289#5" to="12161313#19"/>
    <trip id="231" depart="693.00" from="12125237" to="62153249"/>
    <trip id="232" depart="696.00" from="196207117#3" to="424765881#0"/>
    <trip id="233" depart="699.00" from="288494849#5" to="30908214#0"/>
    <trip id="234" depart="702.00" from="404615580#0" to="333776282#1"/>
    <trip id="235" depart="705.00" from="12167316" to="104524034#3"/>
    <trip id="236" depart="708.00" from="-12163669" to="-12202011#0"/>
    <trip id="237" depart="711.00" from="334903477#1" to="12163668#2"/>
    <trip id="238" depart="714.00" from="50166140" to="-194837496"/>
    <trip id="239" depart="717.00" from="49960966#3" to="-12164007#4"/>
    <trip id="240" depart="720.00" from="423385530#3" to="12167286#1"/>
    <trip id="241" depart="723.00" from="30908207#1" to="194837496"/>
    <trip id="242" depart="726.00" from="387163157#1" to="170020500#8"/>
    <trip id="243" depart="729.00" from="63060588" to="12150213#17"/>
    <trip id="244" depart="732.00" from="474883348" to="137469640#14"/>
    <trip id="245" depart="735.00" from="-206643439#0" to="12171853#8"/>
    <trip id="246" depart="738.00" from="12171853#0" to="-30908057"/>
    <trip id="247" depart="741.00" from="334903477#0" to="12190096"/>
    <trip id="248" depart="744.00" from="87326584#0" to="43539373#4"/>
    <trip id="249" depart="747.00" from="62202577#4" to="12152254"/>
    <trip id="250" depart="750.00" from="435391646#11" to="12203877#8"/>
    <trip id="251" depart="753.00" from="325217182#0" to="62202577#0"/>
    <trip id="252" depart="756.00" from="12139665#1" to="12180158#1"/>
    <trip id="253" depart="759.00" from="474883348" to="12184759#0"/>
    <trip id="254" depart="762.00" from="424829492#4" to="196355331#11"/>
    <trip id="255" depart="765.00" from="12138987" to="12203877#2"/>
    <trip id="256" depart="768.00" from="132508920#0" to="12156058#0"/>
    <trip id="257" depart="771.00" from="194837500" to="134099351#0"/>
    <trip id="258" depart="774.00" from="-63074238#6" to="12139665#35"/>
    <trip id="259" depart="777.00" from="423965606#2" to="196386417#3"/>
    <trip id="260" depart="780.00" from="62202554#0" to="195807761#5"/>
    <trip id="261" depart="783.00" from="12206313#11" to="387162758#5"/>
    <trip id="262" depart="786.00" from="127806656#2" to="12151897#8"/>
    <trip id="263" depart="789.00" from="334658117#12" to="63074238#3"/>
    <trip id="264" depart="792.00" from="12165832#2" to="12182905#2"/>
    <trip id="265" depart="795.00" from="348815354#6" to="96326105#3"/>
    <trip id="266" depart="798.00" from="134099289#14" to="-12189880#0"/>
    <trip id="267" depart="801.00" from="62153246" to="333012805#9"/>
    <trip id="268" depart="804.00" from="63074238#11" to="240537791#0"/>
    <trip id="269" depart="807.00" from="30908232#1" to="96323140#2"/>
    <trip id="270" depart="810.00" from="62202003#7" to="194837494#0"/>
    <trip id="271" depart="813.00" from="63074238#10" to="12165780#1"/>
    <trip id="272" depart="816.00" from="43539372" to="334310264#3"/>
    <trip id="273" depart="819.00" from="-43571133#1" to="271683344#3"/>
    <trip id="274" depart="822.00" from="62203287#1" to="12159752#1"/>
    <trip id="275" depart="825.00" from="424829492#2" to="62154292"/>
    <trip id="276" depart="828.00" from="450862363#0" to="424804088#1"/>
    <trip id="277" depart="831.00" from="424804090#8" to="30908171#9"/>
    <trip id="278" depart="834.00" from="12165780#1" to="310296135#6"/>
    <trip id="279" depart="837.00" from="30908187" to="12138964#6"/>
    <trip id="280" depart="840.00" from="196355328#4" to="423965629#0"/>
    <trip id="281" depart="843.00" from="424804090#7" to="12167278#1"/>
    <trip id="282" depart="846.00" from="12206313#12" to="170020502#14"/>
    <trip id="283" depart="849.00" from="196355331#12" to="49960957#11"/>
    <trip id="284" depart="852.00" from="12178196#4" to="12167314#1"/>
    <trip id="285" depart="855.00" from="127806783#1" to="137469643#2"/>
    <trip id="286" depart="858.00" from="62154274#3" to="196355328#1"/>
    <trip id="287" depart="861.00" from="-12142298#1" to="334903476#20"/>
    <trip id="288" depart="864.00" from="12163114#16" to="423965621#1"/>
    <trip id="289" depart="867.00" from="12165832#4" to="12139665#23"/>
    <trip id="290" depart="870.00" from="60185775#1" to="12167191#2"/>
    <trip id="291" depart="873.00" from="195656298#0" to="12161313#13"/>
    <trip id="292" depart="876.00" from="170020472#10" to="12116604#2"/>
    <trip id="293" depart="879.00" from="49960966#13" to="134099351#9"/>
    <trip id="294" depart="882.00" from="195807761#6" to="62202366#1"/>
    <trip id="295" depart="885.00" from="-12157687#0" to="173544047#7"/>
    <trip id="296" depart="888.00" from="196393950#1" to="12203877#2"/>
    <trip id="297" depart="891.00" from="288494849#5" to="385910224#19"/>
    <trip id="298" depart="894.00" from="-423965592" to="12116604#2"/>
    <trip id="299" depart="897.00" from="30908085" to="12158602#2"/>
    <trip id="300" depart="900.00" from="41959768#6" to="-12115182"/>
    <trip id="301" depart="903.00" from="334658117#8" to="-198495279"/>
    <trip id="302" depart="906.00" from="12152840#5" to="423965593"/>
    <trip id="303" depart="909.00" from="49960973#1" to="334903476#15"/>
    <trip id="304" depart="912.00" from="424765880#1" to="333931865#0"/>
    <trip id="305" depart="915.00" from="12116197#1" to="12165839#3"/>
    <trip id="306" depart="918.00" from="12160575#1" to="63060733#4"/>
    <trip id="307" depart="921.00" from="173543402#9" to="42706664#3"/>
    <trip id="308" depart="924.00" from="435391646#0" to="49961130#13"/>
    <trip id="309" depart="927.00" from="134099374#2" to="49961130#9"/>
    <trip id="310" depart="930.00" from="194837499#3" to="12142491#18"/>
    <trip id="311" depart="933.00" from="170020472#13" to="-12117159"/>
    <trip id="312" depart="936.00" from="30908354" to="12149417#3"/>
    <trip id="313" depart="939.00" from="12142298#0" to="42706664#7"/>
    <trip id="314" depart="942.00" from="49960966#1" to="12142551#3"/>
    <trip id="315" depart="945.00" from="387162759#0" to="-12157333#6"/>
    <trip id="316" depart="948.00" from="12172946#0" to="424804074#2"/>
    <trip id="317" depart="951.00" from="196355327#0" to="12156408#0"/>
    <trip id="318" depart="954.00" from="43331031" to="196207117#3"/>
    <trip id="319" depart="957.00" from="387162756#10" to="170020485#0"/>
    <trip id="320" depart="960.00" from="12181427#3" to="12165832#0"/>
    <trip id="321" depart="963.00" from="12161313#7" to="387162762#11"/>
    <trip id="322" depart="966.00" from="170020502#5" to="121643778#5"/>
    <trip id="323" depart="969.00" from="196393950#1" to="-12167314#0"/>
    <trip id="324" depart="972.00" from="134099365#2" to="96326105#3"/>
    <trip id="325" depart="975.00" from="43539377#0" to="43570920#1"/>
    <trip id="326" depart="978.00" from="196393940#1" to="12142723#6"/>
    <trip id="327" depart="981.00" from="388533147#5" to="-12159449#0"/>
    <trip id="328" depart="984.00" from="12158274#10" to="12149417#1"/>
    <trip id="329" depart="987.00" from="12174752#0" to="30908215"/>
    <trip id="330" depart="990.00" from="271683344#23" to="62154274#1"/>
    <trip id="331" depart="993.00" from="195656293#13" to="12199687"/>
    <trip id="332" depart="996.00" from="12204493#0" to="63074238#2"/>
    <trip id="333" depart="999.00" from="12150213#19" to="334658117#13"/>
    <trip id="334" depart="1002.00" from="196207110#10" to="12162654#0"/>
    <trip id="335" depart="1005.00" from="12178724#1" to="12113077#8"/>
    <trip id="336" depart="1008.00" from="195807761#12" to="42706574"/>
    <trip id="337" depart="1011.00" from="96326105#3" to="30908214#0"/>
    <trip id="338" depart="1014.00" from="423965600" to="-12164007#2"/>
    <trip id="339" depart="1017.00" from="30908187" to="196386425#4"/>
    <trip id="340" depart="1020.00" from="196207116#8" to="12113211"/>
    <trip id="341" depart="1023.00" from="62153733#0" to="-423965590"/>
    <trip id="342" depart="1026.00" from="424768999#1" to="-43571133#1"/>
    <trip id="343" depart="1029.00" from="104526264#0" to="367831920"/>
    <trip id="344" depart="1032.00" from="134099351#11" to="12142491#18"/>
    <trip id="345" depart="1035.00" from="12115226" to="12197761#0"/>
    <trip id="346" depart="1038.00" from="62153268" to="12120534#1"/>
    <trip id="347" depart="1041.00" from="12162649#0" to="30908171#16"/>
    <trip id="348" depart="1044.00" from="12190038#5" to="134099300"/>
    <trip id="349" depart="1047.00" from="12112698#1" to="-59676508#0"/>
    <trip id="350" depart="1050.00" from="49960966#12" to="12149082#5"/>
    <trip id="351" depart="1053.00" from="96323140#1" to="12112698#16"/>
    <trip id="352" depart="1056.00" from="137469640#17" to="12184589#0"/>
    <trip id="353" depart="1059.00" from="12165839#15" to="-12202261#1"/>
    <trip id="354" depart="1062.00" from="12113077#10" to="104523987#3"/>
    <trip id="355" depart="1065.00" from="492442039" to="12159833#5"/>
    <trip id="356" depart="1068.00" from="12161313#9" to="334658117#7"/>
    <trip id="357" depart="1071.00" from="12163114#5" to="25428990#0"/>
    <trip id="358" depart="1074.00" from="424804075" to="62202576#0"/>
    <trip id="359" depart="1077.00" from="12159833#5" to="-194837498#0"/>
    <trip id="360" depart="1080.00" from="195656298#2" to="194837500"/>
    <trip id="361" depart="1083.00" from="62203285#3" to="12133967#0"/>
    <trip id="362" depart="1086.00" from="334310264#5" to="62153384"/>
    <trip id="363" depart="1089.00" from="196355317#5" to="12167286#1"/>
    <trip id="364" depart="1092.00" from="196207110#0" to="62202668#0"/>
    <trip id="365" depart="1095.00" from="12116197#3" to="196355328#0"/>
    <trip id="366" depart="1098.00" from="196393941#3" to="30908242#2"/>
    <trip id="367" depart="1101.00" from="196355310#4" to="30908171#10"/>
    <trip id="368" depart="1104.00" from="12121842#4" to="12159833#19"/>
    <trip id="369" depart="1107.00" from="424829493#2" to="12182905#2"/>
    <trip id="370" depart="1110.00" from="62153240" to="334310264#1"/>
    <trip id="371" depart="1113.00" from="196207117#0" to="12112672#0"/>
    <trip id="372" depart="1116.00" from="334903477#18" to="12171853#1"/>
    <trip id="373" depart="1119.00" from="310296135#7" to="62203073#0"/>
    <trip id="374" depart="1122.00" from="-12152475#1" to="334903476#18"/>
    <trip id="375" depart="1125.00" from="196386425#4" to="-423965590"/>
    <trip id="376" depart="1128.00" from="12150213#20" to="12118427#3"/>
    <trip id="377" depart="1131.00" from="336018361#0" to="31372516#2"/>
    <trip id="378" depart="1134.00" from="196207110#5" to="12152044#1"/>
    <trip id="379" depart="1137.00" from="12158602#7" to="195656293#3"/>
    <trip id="380" depart="1140.00" from="195815883#1" to="183071189"/>
    <trip id="381" depart="1143.00" from="12165839#6" to="12142491#11"/>
    <trip id="382" depart="1146.00" from="12152044#0" to="12205141"/>
    <trip id="383" depart="1149.00" from="87326584#0" to="12163331#1"/>
    <trip id="384" depart="1152.00" from="30908207#1" to="30908058#4"/>
    <trip id="385" depart="1155.00" from="170020472#26" to="-12189884#2"/>
    <trip id="386" depart="1158.00" from="12200160#0" to="134099289#4"/>
    <trip id="387" depart="1161.00" from="196355321#6" to="394179820#3"/>
    <trip id="388" depart="1164.00" from="194837494#12" to="30908242#1"/>
    <trip id="389" depart="1167.00" from="12138964#7" to="12161313#19"/>
    <trip id="390" depart="1170.00" from="486653622#1" to="334903476#1"/>
    <trip id="391" depart="1173.00" from="124145103#2" to="104524034#5"/>
    <trip id="392" depart="1176.00" from="30908085" to="12186741#0"/>
    <trip id="393" depart="1179.00" from="62154277" to="127806930"/>
    <trip id="394" depart="1182.00" from="12204350#1" to="12157725#1"/>
    <trip id="395" depart="1185.00" from="31372516#2" to="-333316189"/>
    <trip id="396" depart="1188.00" from="12161365" to="334665975#2"/>
    <trip id="397" depart="1191.00" from="267077089#0" to="104523987#0"/>
    <trip id="398" depart="1194.00" from="-12167314#1" to="49960973#9"/>
    <trip id="399" depart="1197.00" from="196384431#12" to="12118427#2"/>
    <trip id="400" depart="1200.00" from="204883011#1" to="49960969#5"/>
    <trip id="401" depart="1203.00" from="12184759#0" to="387422116#9"/>
    <trip id="402" depart="1206.00" from="12142491#15" to="196355328#9"/>
    <trip id="403" depart="1209.00" from="12115226" to="-423965605#0"/>
    <trip id="404" depart="1212.00" from="12203956#0" to="424765883"/>
    <trip id="405" depart="1215.00" from="-12149829" to="-12163322"/>
    <trip id="406" depart="1218.00" from="196355327#5" to="12157687#2"/>
    <trip id="407" depart="1221.00" from="62153516#1" to="127806783#0"/>
    <trip id="408" depart="1224.00" from="288494849#0" to="49961130#10"/>
    <trip id="409" depart="1227.00" from="424765882#1" to="12176619"/>
    <trip id="410" depart="1230.00" from="12159833#0" to="365918765#1"/>
    <trip id="411" depart="1233.00" from="-12189880#0" to="12161748#0"/>
    <trip id="412" depart="1236.00" from="63060731#1" to="333316189"/>
    <trip id="413" depart="1239.00" from="12198369#0" to="50171184#0"/>