<configuration>
  <input>
    <net-file value="philly.net.xml"/>
    <route-files value="philly.rou.xml"/>
  </input>
  <time>
    <begin value="0"/>
    <end value="3600"/>
    <step-length value="0.01"/>
  </time>
</configuration>