<?xml version="1.0"?>
<!-- generated on 2017-08-04 18:06:01.107359 by $Id: randomTrips.py 23999 2017-04-21 09:04:47Z behrisch $
  options: -n grid.net.xml -o grid-0p075/grid-0p075.trips.xml -r grid-0p075/grid-0p075.rou.xml -e 100 -p 0.075
-->
<routes xmlns:xsi="http://www.w3.org/2001/XMLSchema-instance" xsi:noNamespaceSchemaLocation="http://sumo.dlr.de/xsd/routes_file.xsd">
    <trip id="0" depart="0.00" from="3/7to2/7" to="2/2to2/3"/>
    <trip id="1" depart="0.07" from="left7to0/7" to="1/9to1/8"/>
    <trip id="2" depart="0.15" from="top4to4/9" to="4/3to3/3"/>
    <trip id="3" depart="0.22" from="top1to1/9" to="2/7to1/7"/>
    <trip id="4" depart="0.30" from="2/5to2/4" to="4/0to3/0"/>
    <trip id="5" depart="0.38" from="2/2to2/3" to="1/7to0/7"/>
    <trip id="6" depart="0.45" from="0/6to0/5" to="4/9to4/8"/>
    <trip id="7" depart="0.53" from="2/1to3/1" to="2/7to1/7"/>
    <trip id="8" depart="0.60" from="2/1to2/0" to="4/2to4/1"/>
    <trip id="9" depart="0.67" from="3/1to3/2" to="2/9totop2"/>
    <trip id="10" depart="0.75" from="1/2to1/3" to="3/2to3/3"/>
    <trip id="11" depart="0.82" from="4/2to4/3" to="1/7to0/7"/>
    <trip id="12" depart="0.90" from="1/8to0/8" to="4/4to4/3"/>
    <trip id="13" depart="0.97" from="2/0to3/0" to="2/2to2/1"/>
    <trip id="14" depart="1.05" from="0/8to1/8" to="4/0to3/0"/>
    <trip id="15" depart="1.12" from="0/4to1/4" to="4/1toright1"/>
    <trip id="16" depart="1.20" from="0/8to0/7" to="2/6to1/6"/>
    <trip id="17" depart="1.27" from="2/4to2/5" to="4/4toright4"/>
    <trip id="18" depart="1.35" from="3/4to3/5" to="4/6to3/6"/>
    <trip id="19" depart="1.42" from="0/4to0/5" to="1/2to2/2"/>
    <trip id="20" depart="1.50" from="1/2to2/2" to="3/0tobottom3"/>
    <trip id="21" depart="1.57" from="0/7to1/7" to="4/3toright3"/>
    <trip id="22" depart="1.65" from="3/2to3/3" to="0/0to1/0"/>
    <trip id="23" depart="1.72" from="0/5to0/6" to="0/1to0/0"/>
    <trip id="24" depart="1.80" from="0/0to1/0" to="0/5toleft5"/>
    <trip id="25" depart="1.87" from="3/4to3/5" to="0/9to1/9"/>
    <trip id="26" depart="1.95" from="3/4to2/4" to="2/9to2/8"/>
    <trip id="27" depart="2.02" from="3/4to2/4" to="1/5to2/5"/>
    <trip id="28" depart="2.10" from="3/1to3/2" to="2/1to3/1"/>
    <trip id="29" depart="2.17" from="3/4to3/5" to="0/9to1/9"/>
    <trip id="30" depart="2.25" from="0/8to0/9" to="1/7to1/6"/>
    <trip id="31" depart="2.33" from="3/5to3/6" to="2/4to3/4"/>
    <trip id="32" depart="2.40" from="left7to0/7" to="3/2to2/2"/>
    <trip id="33" depart="2.48" from="left6to0/6" to="0/9to0/8"/>
    <trip id="34" depart="2.55" from="2/4to1/4" to="4/4to4/5"/>
    <trip id="35" depart="2.63" from="1/2to1/3" to="4/6to4/5"/>
    <trip id="36" depart="2.70" from="top4to4/9" to="0/6to0/5"/>
    <trip id="37" depart="2.78" from="4/4to4/5" to="4/5toright5"/>
    <trip id="38" depart="2.85" from="2/5to3/5" to="0/2toleft2"/>
    <trip id="39" depart="2.93" from="1/4to1/5" to="2/4to2/3"/>
    <trip id="40" depart="3.00" from="1/3to1/2" to="3/4to3/5"/>
    <trip id="41" depart="3.08" from="1/9to1/8" to="0/3to0/4"/>
    <trip id="42" depart="3.15" from="1/0to0/0" to="1/8to1/9"/>
    <trip id="43" depart="3.23" from="0/5to0/6" to="1/8to1/7"/>
    <trip id="44" depart="3.30" from="3/8to3/9" to="4/6to4/5"/>
    <trip id="45" depart="3.38" from="1/7to1/8" to="1/5to1/6"/>
    <trip id="46" depart="3.45" from="0/3to0/2" to="3/1to4/1"/>
    <trip id="47" depart="3.53" from="1/4to0/4" to="0/2toleft2"/>
    <trip id="48" depart="3.60" from="3/9to4/9" to="2/8to3/8"/>
    <trip id="49" depart="3.68" from="4/7to4/6" to="2/2to2/3"/>
    <trip id="50" depart="3.75" from="3/8to3/9" to="1/0to0/0"/>
    <trip id="51" depart="3.83" from="3/5to3/6" to="4/0to3/0"/>
    <trip id="52" depart="3.90" from="3/2to4/2" to="0/1toleft1"/>
    <trip id="53" depart="3.98" from="0/9to0/8" to="4/4to4/5"/>
    <trip id="54" depart="4.05" from="3/2to2/2" to="1/6to2/6"/>
    <trip id="55" depart="4.13" from="4/8to4/7" to="4/5to4/4"/>
    <trip id="56" depart="4.20" from="right0to4/0" to="3/2to4/2"/>
    <trip id="57" depart="4.28" from="3/6to4/6" to="3/2to3/1"/>
    <trip id="58" depart="4.35" from="4/1to4/0" to="4/6to4/5"/>
    <trip id="59" depart="4.43" from="0/0to0/1" to="0/1toleft1"/>
    <trip id="60" depart="4.50" from="3/5to3/4" to="4/8to4/7"/>
    <trip id="61" depart="4.58" from="2/6to3/6" to="2/2to2/3"/>
    <trip id="62" depart="4.65" from="0/8to0/7" to="1/4to1/5"/>
    <trip id="63" depart="4.73" from="2/4to3/4" to="3/1to4/1"/>
    <trip id="64" depart="4.80" from="2/3to2/2" to="2/1to1/1"/>
    <trip id="65" depart="4.88" from="left9to0/9" to="3/6to3/5"/>
    <trip id="66" depart="4.95" from="3/8to3/9" to="2/7to2/8"/>
    <trip id="67" depart="5.03" from="0/3to1/3" to="1/3to1/4"/>
    <trip id="68" depart="5.10" from="3/7to3/6" to="2/6to1/6"/>
    <trip id="69" depart="5.18" from="2/3to2/2" to="4/1to4/2"/>
    <trip id="70" depart="5.25" from="2/0to3/0" to="3/5to3/4"/>
    <trip id="71" depart="5.33" from="3/5to3/4" to="1/0to2/0"/>
    <trip id="72" depart="5.40" from="4/3to4/4" to="0/8to1/8"/>
    <trip id="73" depart="5.48" from="1/1to1/0" to="1/9totop1"/>
    <trip id="74" depart="5.55" from="2/4to2/3" to="0/9toleft9"/>
    <trip id="75" depart="5.63" from="2/2to2/3" to="3/5to3/6"/>
    <trip id="76" depart="5.70" from="1/4to2/4" to="1/2to2/2"/>
    <trip id="77" depart="5.78" from="4/8to4/9" to="0/8to0/7"/>
    <trip id="78" depart="5.85" from="1/4to2/4" to="0/8toleft8"/>
    <trip id="79" depart="5.93" from="1/9to0/9" to="2/1to2/2"/>
    <trip id="80" depart="6.00" from="4/7to4/8" to="0/1toleft1"/>
    <trip id="81" depart="6.08" from="4/0to4/1" to="1/7to0/7"/>
    <trip id="82" depart="6.15" from="1/2to1/3" to="2/4to1/4"/>
    <trip id="83" depart="6.23" from="2/6to1/6" to="3/2to2/2"/>
    <trip id="84" depart="6.30" from="2/8to2/9" to="1/7to1/8"/>
    <trip id="85" depart="6.38" from="0/7to0/8" to="4/2to3/2"/>
    <trip id="86" depart="6.45" from="0/2to0/3" to="0/6to0/7"/>
    <trip id="87" depart="6.53" from="3/4to2/4" to="2/7to1/7"/>
    <trip id="88" depart="6.60" from="4/1to4/0" to="4/9toright9"/>
    <trip id="89" depart="6.68" from="1/6to2/6" to="1/8to1/9"/>
    <trip id="90" depart="6.75" from="2/3to2/2" to="0/9to0/8"/>
    <trip id="91" depart="6.83" from="3/6to4/6" to="0/1to1/1"/>
    <trip id="92" depart="6.90" from="4/0to3/0" to="1/2to1/1"/>
    <trip id="93" depart="6.98" from="3/5to4/5" to="3/4to2/4"/>
    <trip id="94" depart="7.05" from="1/0to0/0" to="0/9to1/9"/>
    <trip id="95" depart="7.13" from="0/6to0/5" to="2/9to1/9"/>
    <trip id="96" depart="7.20" from="2/2to3/2" to="1/5to2/5"/>
    <trip id="97" depart="7.28" from="1/0to0/0" to="3/2to4/2"/>
    <trip id="98" depart="7.35" from="0/2to0/3" to="2/2to1/2"/>
    <trip id="99" depart="7.43" from="2/7to1/7" to="2/3to2/2"/>
    <trip id="100" depart="7.50" from="4/8to3/8" to="4/6toright6"/>
    <trip id="101" depart="7.58" from="2/2to2/3" to="1/3to1/4"/>
    <trip id="102" depart="7.65" from="3/5to3/6" to="4/5toright5"/>
    <trip id="103" depart="7.73" from="0/9to1/9" to="4/2to3/2"/>
    <trip id="104" depart="7.80" from="1/1to1/2" to="4/7to3/7"/>
    <trip id="105" depart="7.88" from="1/9to1/8" to="2/9totop2"/>
    <trip id="106" depart="7.95" from="top2to2/9" to="0/4to1/4"/>
    <trip id="107" depart="8.03" from="4/2to3/2" to="4/4toright4"/>
    <trip id="108" depart="8.10" from="1/3to0/3" to="2/8to2/7"/>
    <trip id="109" depart="8.18" from="3/3to3/4" to="4/4to4/3"/>
    <trip id="110" depart="8.25" from="0/8to0/7" to="2/0to1/0"/>
    <trip id="111" depart="8.33" from="left0to0/0" to="1/0tobottom1"/>
    <trip id="112" depart="8.40" from="2/8to2/7" to="0/8toleft8"/>
    <trip id="113" depart="8.48" from="2/4to3/4" to="1/7to0/7"/>
    <trip id="114" depart="8.55" from="4/8to3/8" to="2/7to2/6"/>
    <trip id="115" depart="8.63" from="1/7to0/7" to="3/4to2/4"/>
    <trip id="116" depart="8.70" from="1/3to2/3" to="1/6to1/7"/>
    <trip id="117" depart="8.78" from="top1to1/9" to="1/9totop1"/>
    <trip id="118" depart="8.85" from="4/2to3/2" to="0/0tobottom0"/>
    <trip id="119" depart="8.93" from="0/7to1/7" to="3/9totop3"/>
    <trip id="120" depart="9.00" from="right4to4/4" to="3/7to2/7"/>
    <trip id="121" depart="9.08" from="3/1to3/2" to="4/3to4/2"/>
    <trip id="122" depart="9.15" from="0/2to1/2" to="0/7toleft7"/>
    <trip id="123" depart="9.23" from="1/6to1/7" to="0/4to0/3"/>
    <trip id="124" depart="9.30" from="1/7to1/6" to="2/6to2/7"/>
    <trip id="125" depart="9.38" from="1/7to0/7" to="4/2to3/2"/>
    <trip id="126" depart="9.45" from="1/7to1/8" to="2/0to3/0"/>
    <trip id="127" depart="9.52" from="0/5to0/6" to="1/3to2/3"/>
    <trip id="128" depart="9.60" from="2/8to2/7" to="2/2to2/3"/>
    <trip id="129" depart="9.67" from="left0to0/0" to="4/6to4/7"/>
    <trip id="130" depart="9.75" from="2/2to1/2" to="4/7to4/6"/>
    <trip id="131" depart="9.82" from="2/7to2/8" to="3/4to4/4"/>
    <trip id="132" depart="9.90" from="1/1to2/1" to="3/7to4/7"/>
    <trip id="133" depart="9.97" from="bottom4to4/0" to="3/8to3/9"/>
    <trip id="134" depart="10.05" from="3/2to3/1" to="2/9to2/8"/>
    <trip id="135" depart="10.12" from="1/6to0/6" to="3/9totop3"/>
    <trip id="136" depart="10.20" from="3/4to3/3" to="4/7toright7"/>
    <trip id="137" depart="10.27" from="3/1to4/1" to="3/5to2/5"/>
    <trip id="138" depart="10.35" from="3/6to2/6" to="2/2to1/2"/>
    <trip id="139" depart="10.42" from="2/4to2/5" to="4/5to4/6"/>
    <trip id="140" depart="10.50" from="3/8to4/8" to="4/6to4/7"/>
    <trip id="141" depart="10.57" from="4/1to4/0" to="4/0to4/1"/>
    <trip id="142" depart="10.65" from="0/9to1/9" to="2/1to1/1"/>
    <trip id="143" depart="10.72" from="4/1to3/1" to="3/5to4/5"/>
    <trip id="144" depart="10.80" from="bottom0to0/0" to="2/1to2/0"/>
    <trip id="145" depart="10.87" from="0/1to1/1" to="0/0toleft0"/>
    <trip id="146" depart="10.95" from="2/9to2/8" to="4/6to4/5"/>
    <trip id="147" depart="11.02" from="0/4to0/3" to="4/3to3/3"/>
    <trip id="148" depart="11.10" from="0/7to1/7" to="4/5toright5"/>
    <trip id="149" depart="11.17" from="1/1to1/2" to="4/1toright1"/>
    <trip id="150" depart="11.25" from="3/9to4/9" to="1/2to0/2"/>
    <trip id="151" depart="11.32" from="1/8to2/8" to="0/3toleft3"/>
    <trip id="152" depart="11.40" from="left6to0/6" to="0/5to0/4"/>
    <trip id="153" depart="11.47" from="0/2to0/3" to="0/6toleft6"/>
    <trip id="154" depart="11.55" from="2/7to2/8" to="3/0to4/0"/>
    <trip id="155" depart="11.62" from="2/6to2/7" to="2/6to2/5"/>
    <trip id="156" depart="11.70" from="2/5to2/4" to="2/1to2/0"/>
    <trip id="157" depart="11.77" from="0/7to0/8" to="3/7to3/6"/>
    <trip id="158" depart="11.85" from="1/2to1/1" to="4/8toright8"/>
    <trip id="159" depart="11.92" from="1/4to1/3" to="4/5to4/6"/>
    <trip id="160" depart="12.00" from="3/1to4/1" to="1/7to2/7"/>
    <trip id="161" depart="12.07" from="3/5to3/6" to="0/6toleft6"/>
    <trip id="162" depart="12.15" from="1/2to0/2" to="3/4to3/5"/>
    <trip id="163" depart="12.22" from="0/3to0/2" to="3/8to3/9"/>
    <trip id="164" depart="12.30" from="0/6to1/6" to="3/8to3/9"/>
    <trip id="165" depart="12.37" from="1/5to1/6" to="2/2to3/2"/>
    <trip id="166" depart="12.45" from="left3to0/3" to="1/4to1/5"/>
    <trip id="167" depart="12.52" from="0/0to1/0" to="3/8to2/8"/>
    <trip id="168" depart="12.60" from="1/5to2/5" to="4/6to4/5"/>
    <trip id="169" depart="12.67" from="2/8to2/7" to="4/0tobottom4"/>
    <trip id="170" depart="12.75" from="0/9to0/8" to="0/5to1/5"/>
    <trip id="171" depart="12.82" from="4/7to4/8" to="3/2to3/1"/>
    <trip id="172" depart="12.90" from="4/2to3/2" to="2/3to2/2"/>
    <trip id="173" depart="12.97" from="4/1to4/0" to="4/8toright8"/>
    <trip id="174" depart="13.05" from="1/9to1/8" to="4/1to4/0"/>
    <trip id="175" depart="13.12" from="1/1to1/0" to="0/8to0/7"/>
    <trip id="176" depart="13.20" from="right4to4/4" to="1/9to0/9"/>
    <trip id="177" depart="13.27" from="2/6to2/7" to="2/8to2/7"/>
    <trip id="178" depart="13.35" from="1/9to0/9" to="4/2to3/2"/>
    <trip id="179" depart="13.42" from="1/3to0/3" to="1/9to1/8"/>
    <trip id="180" depart="13.50" from="2/1to2/0" to="1/6to2/6"/>
    <trip id="181" depart="13.57" from="top1to1/9" to="0/8to0/9"/>
    <trip id="182" depart="13.65" from="1/4to0/4" to="2/0to2/1"/>
    <trip id="183" depart="13.72" from="left3to0/3" to="2/2to1/2"/>
    <trip id="184" depart="13.80" from="4/5to3/5" to="0/3toleft3"/>
    <trip id="185" depart="13.87" from="2/5to3/5" to="2/0to2/1"/>
    <trip id="186" depart="13.95" from="1/8to0/8" to="4/8to4/7"/>
    <trip id="187" depart="14.02" from="1/4to2/4" to="2/1to1/1"/>
    <trip id="188" depart="14.10" from="1/6to1/5" to="3/0to3/1"/>
    <trip id="189" depart="14.17" from="1/9to0/9" to="2/0tobottom2"/>
    <trip id="190" depart="14.25" from="right1to4/1" to="4/8to4/9"/>
    <trip id="191" depart="14.32" from="2/2to1/2" to="0/2toleft2"/>
    <trip id="192" depart="14.40" from="1/3to0/3" to="3/6to3/7"/>
    <trip id="193" depart="14.47" from="1/5to2/5" to="0/8to0/9"/>
    <trip id="194" depart="14.55" from="2/7to2/6" to="4/2to4/1"/>
    <trip id="195" depart="14.62" from="2/8to1/8" to="0/1to1/1"/>
    <trip id="196" depart="14.70" from="0/1to0/2" to="2/7to3/7"/>
    <trip id="197" depart="14.77" from="2/9to1/9" to="4/2to4/3"/>
    <trip id="198" depart="14.85" from="1/1to1/0" to="1/8to2/8"/>
    <trip id="199" depart="14.92" from="1/4to0/4" to="1/4to1/3"/>
    <trip id="200" depart="15.00" from="left2to0/2" to="1/7to2/7"/>
    <trip id="201" depart="15.07" from="2/7to1/7" to="3/7to2/7"/>
    <trip id="202" depart="15.15" from="3/9to4/9" to="1/3to1/2"/>
    <trip id="203" depart="15.22" from="4/2to3/2" to="1/4to2/4"/>
    <trip id="204" depart="15.30" from="3/7to3/6" to="0/6to0/5"/>
    <trip id="205" depart="15.37" from="2/1to1/1" to="4/1to3/1"/>
    <trip id="206" depart="15.45" from="right7to4/7" to="3/1to3/2"/>
    <trip id="207" depart="15.52" from="3/6to4/6" to="2/6to2/7"/>
    <trip id="208" depart="15.60" from="3/1to3/2" to="1/4to0/4"/>
    <trip id="209" depart="15.67" from="0/9to0/8" to="0/5to1/5"/>
    <trip id="210" depart="15.75" from="right8to4/8" to="0/5toleft5"/>
    <trip id="211" depart="15.82" from="4/5to4/6" to="3/5to2/5"/>
    <trip id="212" depart="15.90" from="3/9to3/8" to="3/0to4/0"/>
    <trip id="213" depart="15.97" from="2/7to2/6" to="3/1to3/0"/>
    <trip id="214" depart="16.05" from="3/7to2/7" to="1/1to1/0"/>
    <trip id="215" depart="16.12" from="4/6to3/6" to="1/3to0/3"/>
    <trip id="216" depart="16.20" from="2/9to2/8" to="4/7to3/7"/>
    <trip id="217" depart="16.27" from="0/3to0/4" to="2/6to3/6"/>
    <trip id="218" depart="16.35" from="left0to0/0" to="1/6to0/6"/>
    <trip id="219" depart="16.42" from="4/5to4/4" to="0/8to0/9"/>
    <trip id="220" depart="16.50" from="4/3to3/3" to="1/3to1/2"/>
    <trip id="221" depart="16.57" from="4/5to4/4" to="0/9totop0"/>
    <trip id="222" depart="16.65" from="3/0to4/0" to="4/2to4/3"/>
    <trip id="223" depart="16.72" from="3/5to2/5" to="3/5to3/6"/>
    <trip id="224" depart="16.80" from="left2to0/2" to="1/3to0/3"/>
    <trip id="225" depart="16.87" from="2/1to1/1" to="3/5to3/6"/>
    <trip id="226" depart="16.95" from="1/1to1/0" to="1/0to2/0"/>
    <trip id="227" depart="17.02" from="2/3to2/4" to="4/7toright7"/>
    <trip id="228" depart="17.10" from="3/3to3/4" to="3/4to3/3"/>
    <trip id="229" depart="17.17" from="4/4to3/4" to="1/1to0/1"/>
    <trip id="230" depart="17.25" from="bottom2to2/0" to="0/6toleft6"/>
    <trip id="231" depart="17.32" from="left1to0/1" to="0/7toleft7"/>
    <trip id="232" depart="17.40" from="3/8to2/8" to="0/5to1/5"/>
    <trip id="233" depart="17.47" from="1/2to1/1" to="2/0to1/0"/>
    <trip id="234" depart="17.55" from="0/0to1/0" to="0/8to1/8"/>
    <trip id="235" depart="17.62" from="3/9to2/9" to="1/8to1/7"/>
    <trip id="236" depart="17.70" from="1/1to1/0" to="1/4to1/3"/>
    <trip id="237" depart="17.77" from="3/9to2/9" to="1/4to0/4"/>
    <trip id="238" depart="17.85" from="left8to0/8" to="1/5to1/6"/>
    <trip id="239" depart="17.92" from="left1to0/1" to="1/4to1/5"/>
    <trip id="240" depart="18.00" from="1/8to1/9" to="1/3to0/3"/>
    <trip id="241" depart="18.07" from="2/3to2/2" to="1/3to0/3"/>
    <trip id="242" depart="18.15" from="1/1to1/0" to="3/3to4/3"/>
    <trip id="243" depart="18.22" from="2/9to1/9" to="3/7to3/8"/>
    <trip id="244" depart="18.30" from="1/5to0/5" to="4/6toright6"/>
    <trip id="245" depart="18.37" from="4/5to4/4" to="2/9to1/9"/>
    <trip id="246" depart="18.45" from="0/4to0/3" to="3/0to2/0"/>
    <trip id="247" depart="18.52" from="bottom0to0/0" to="2/5to1/5"/>
    <trip id="248" depart="18.60" from="3/2to2/2" to="1/9to1/8"/>
    <trip id="249" depart="18.67" from="4/1to4/0" to="4/9to3/9"/>
    <trip id="250" depart="18.75" from="1/3to2/3" to="1/3to1/4"/>
    <trip id="251" depart="18.82" from="0/9to1/9" to="3/3to2/3"/>
    <trip id="252" depart="18.90" from="right9to4/9" to="0/3toleft3"/>
    <trip id="253" depart="18.97" from="0/4to0/5" to="4/0toright0"/>
    <trip id="254" depart="19.05" from="0/6to0/7" to="1/7to1/6"/>
    <trip id="255" depart="19.12" from="2/7to2/8" to="4/5to3/5"/>
    <trip id="256" depart="19.20" from="bottom4to4/0" to="0/7to0/6"/>
    <trip id="257" depart="19.27" from="1/9to0/9" to="1/7to1/6"/>
    <trip id="258" depart="19.35" from="0/0to1/0" to="1/3to0/3"/>
    <trip id="259" depart="19.42" from="4/6to4/5" to="4/5to3/5"/>
    <trip id="260" depart="19.50" from="0/2to0/3" to="2/9to1/9"/>
    <trip id="261" depart="19.57" from="1/4to0/4" to="2/0to3/0"/>
    <trip id="262" depart="19.65" from="4/8to4/7" to="0/7toleft7"/>
    <trip id="263" depart="19.72" from="3/0to3/1" to="0/5toleft5"/>
    <trip id="264" depart="19.80" from="1/9to2/9" to="1/3to1/2"/>
    <trip id="265" depart="19.87" from="2/6to2/5" to="2/2to3/2"/>
    <trip id="266" depart="19.95" from="3/3to3/2" to="3/0to4/0"/>
    <trip id="267" depart="20.02" from="0/0to1/0" to="1/9to1/8"/>
    <trip id="268" depart="20.10" from="2/7to2/6" to="0/4to0/5"/>
    <trip id="269" depart="20.17" from="1/0to2/0" to="0/0to1/0"/>
    <trip id="270" depart="20.25" from="3/3to4/3" to="2/6to2/5"/>
    <trip id="271" depart="20.32" from="4/3to4/4" to="2/5to2/4"/>
    <trip id="272" depart="20.40" from="3/7to3/6" to="3/7to4/7"/>
    <trip id="273" depart="20.47" from="0/0to0/1" to="0/8toleft8"/>
    <trip id="274" depart="20.55" from="4/5to3/5" to="0/8to1/8"/>
    <trip id="275" depart="20.62" from="3/0to2/0" to="2/7to3/7"/>
    <trip id="276" depart="20.70" from="1/6to1/7" to="4/2toright2"/>
    <trip id="277" depart="20.77" from="4/2to4/3" to="1/7to0/7"/>
    <trip id="278" depart="20.85" from="right0to4/0" to="0/1to0/2"/>
    <trip id="279" depart="20.92" from="3/8to2/8" to="3/8to4/8"/>
    <trip id="280" depart="21.00" from="1/9to0/9" to="4/4to4/3"/>
    <trip id="281" depart="21.07" from="3/6to3/5" to="2/4to2/3"/>
    <trip id="282" depart="21.15" from="2/9to3/9" to="1/1to2/1"/>
    <trip id="283" depart="21.22" from="1/1to2/1" to="2/2to2/1"/>
    <trip id="284" depart="21.30" from="3/4to2/4" to="2/4to3/4"/>
    <trip id="285" depart="21.37" from="left6to0/6" to="3/8to3/9"/>
    <trip id="286" depart="21.45" from="2/4to2/5" to="0/9to1/9"/>
    <trip id="287" depart="21.52" from="2/5to1/5" to="4/2to3/2"/>
    <trip id="288" depart="21.60" from="2/7to1/7" to="0/3toleft3"/>
    <trip id="289" depart="21.67" from="2/7to3/7" to="2/3to2/4"/>
    <trip id="290" depart="21.75" from="2/7to2/6" to="0/0tobottom0"/>
    <trip id="291" depart="21.82" from="right2to4/2" to="1/2to1/1"/>
    <trip id="292" depart="21.90" from="1/5to0/5" to="1/5to2/5"/>
    <trip id="293" depart="21.97" from="4/7to4/6" to="1/9to0/9"/>
    <trip id="294" depart="22.05" from="2/0to2/1" to="2/4to2/5"/>
    <trip id="295" depart="22.12" from="1/6to1/7" to="2/7to1/7"/>
    <trip id="296" depart="22.20" from="3/8to3/7" to="1/3to2/3"/>
    <trip id="297" depart="22.27" from="1/2to0/2" to="1/6to2/6"/>
    <trip id="298" depart="22.35" from="3/7to3/8" to="4/2toright2"/>
    <trip id="299" depart="22.42" from="0/7to0/6" to="4/8toright8"/>
    <trip id="300" depart="22.50" from="0/5to1/5" to="1/6to2/6"/>
    <trip id="301" depart="22.57" from="right0to4/0" to="0/8to0/9"/>
    <trip id="302" depart="22.65" from="2/3to2/4" to="1/1to2/1"/>
    <trip id="303" depart="22.72" from="1/1to0/1" to="1/1to1/0"/>
    <trip id="304" depart="22.80" from="2/0to2/1" to="3/8to2/8"/>
    <trip id="305" depart="22.87" from="1/4to1/3" to="1/9totop1"/>
    <trip id="306" depart="22.95" from="3/6to4/6" to="4/8to3/8"/>
    <trip id="307" depart="23.02" from="4/9to3/9" to="2/1to2/2"/>
    <trip id="308" depart="23.10" from="4/4to3/4" to="2/1to3/1"/>
    <trip id="309" depart="23.17" from="4/0to3/0" to="0/1to0/0"/>
    <trip id="310" depart="23.25" from="4/6to4/5" to="4/1to4/2"/>
    <trip id="311" depart="23.32" from="3/7to3/6" to="3/9totop3"/>
    <trip id="312" depart="23.40" from="2/9to2/8" to="0/7to0/6"/>
    <trip id="313" depart="23.47" from="4/6to4/7" to="1/6to0/6"/>
    <trip id="314" depart="23.55" from="left0to0/0" to="1/0to0/0"/>
    <trip id="315" depart="23.62" from="2/1to3/1" to="2/9to1/9"/>
    <trip id="316" depart="23.70" from="4/6to4/5" to="1/3to2/3"/>
    <trip id="317" depart="23.77" from="1/6to0/6" to="3/0tobottom3"/>
    <trip id="318" depart="23.85" from="3/7to4/7" to="3/2to2/2"/>
    <trip id="319" depart="23.92" from="1/5to1/6" to="4/0to4/1"/>
    <trip id="320" depart="24.00" from="1/6to1/7" to="2/0tobottom2"/>
    <trip id="321" depart="24.07" from="0/7to0/6" to="0/8toleft8"/>
    <trip id="322" depart="24.15" from="3/3to3/4" to="3/2to3/3"/>
    <trip id="323" depart="24.22" from="right5to4/5" to="3/2to3/1"/>
    <trip id="324" depart="24.30" from="1/3to1/2" to="0/1toleft1"/>
    <trip id="325" depart="24.37" from="left8to0/8" to="3/0to3/1"/>
    <trip id="326" depart="24.45" from="3/1to3/0" to="4/8to4/7"/>
    <trip id="327" depart="24.52" from="2/9to1/9" to="1/1to2/1"/>
    <trip id="328" depart="24.60" from="4/8to3/8" to="2/9to3/9"/>
    <trip id="329" depart="24.67" from="1/8to2/8" to="2/1to3/1"/>
    <trip id="330" depart="24.75" from="1/9to1/8" to="2/9to2/8"/>
    <trip id="331" depart="24.82" from="2/6to2/5" to="1/1to2/1"/>
    <trip id="332" depart="24.90" from="0/3to0/4" to="1/5to1/4"/>
    <trip id="333" depart="24.97" from="2/6to1/6" to="4/9to4/8"/>
    <trip id="334" depart="25.05" from="left1to0/1" to="0/6to0/7"/>
    <trip id="335" depart="25.12" from="1/2to0/2" to="1/7to1/6"/>
    <trip id="336" depart="25.20" from="3/5to3/4" to="1/1to0/1"/>
    <trip id="337" depart="25.27" from="4/3to4/4" to="4/3to3/3"/>
    <trip id="338" depart="25.35" from="3/6to2/6" to="3/2to4/2"/>
    <trip id="339" depart="25.42" from="3/7to4/7" to="1/5to2/5"/>
    <trip id="340" depart="25.50" from="0/5to0/4" to="2/7to2/8"/>
    <trip id="341" depart="25.57" from="3/5to3/6" to="1/2to1/3"/>
    <trip id="342" depart="25.65" from="2/6to2/5" to="2/2to3/2"/>
    <trip id="343" depart="25.72" from="4/4to4/5" to="4/4to3/4"/>
    <trip id="344" depart="25.80" from="0/8to0/9" to="3/3to2/3"/>
    <trip id="345" depart="25.87" from="3/4to3/5" to="4/6toright6"/>
    <trip id="346" depart="25.95" from="3/6to2/6" to="0/3to0/4"/>
    <trip id="347" depart="26.02" from="4/1to4/0" to="4/5to4/4"/>
    <trip id="348" depart="26.10" from="right3to4/3" to="4/3toright3"/>
    <trip id="349" depart="26.17" from="2/2to3/2" to="0/0tobottom0"/>
    <trip id="350" depart="26.25" from="top0to0/9" to="2/6to2/7"/>
    <trip id="351" depart="26.32" from="4/6to3/6" to="1/5to2/5"/>
    <trip id="352" depart="26.40" from="1/4to0/4" to="0/4to1/4"/>
    <trip id="353" depart="26.47" from="3/5to3/6" to="4/6to3/6"/>
    <trip id="354" depart="26.55" from="3/6to3/7" to="3/4to3/5"/>
    <trip id="355" depart="26.62" from="1/6to0/6" to="0/3to0/2"/>
    <trip id="356" depart="26.70" from="0/7to0/6" to="4/8to3/8"/>
    <trip id="357" depart="26.77" from="2/6to2/5" to="3/5to3/6"/>
    <trip id="358" depart="26.85" from="3/1to3/0" to="1/5to0/5"/>
    <trip id="359" depart="26.92" from="right5to4/5" to="3/0tobottom3"/>
    <trip id="360" depart="27.00" from="3/0to3/1" to="4/5to4/4"/>
    <trip id="361" depart="27.07" from="left7to0/7" to="1/0tobottom1"/>
    <trip id="362" depart="27.15" from="2/7to1/7" to="1/1to1/0"/>
    <trip id="363" depart="27.22" from="3/1to3/2" to="1/5to2/5"/>
    <trip id="364" depart="27.30" from="0/5to1/5" to="0/4toleft4"/>
    <trip id="365" depart="27.37" from="2/8to3/8" to="4/7to3/7"/>
    <trip id="366" depart="27.45" from="right7to4/7" to="1/9to0/9"/>
    <trip id="367" depart="27.52" from="1/6to0/6" to="4/7toright7"/>
    <trip id="368" depart="27.60" from="1/3to1/4" to="0/4to0/5"/>
    <trip id="369" depart="27.67" from="1/5to2/5" to="0/0to0/1"/>
    <trip id="370" depart="27.75" from="0/8to0/7" to="4/4to4/3"/>
    <trip id="371" depart="27.82" from="bottom1to1/0" to="4/9totop4"/>
    <trip id="372" depart="27.90" from="1/1to2/1" to="0/0tobottom0"/>
    <trip id="373" depart="27.97" from="2/3to2/4" to="2/6to2/5"/>
    <trip id="374" depart="28.05" from="3/1to3/2" to="3/9totop3"/>
    <trip id="375" depart="28.12" from="right2to4/2" to="0/2toleft2"/>
    <trip id="376" depart="28.20" from="bottom1to1/0" to="4/3to4/2"/>
    <trip id="377" depart="28.27" from="2/2to3/2" to="1/3to1/2"/>
    <trip id="378" depart="28.35" from="3/4to3/5" to="2/3to3/3"/>
    <trip id="379" depart="28.42" from="1/7to2/7" to="4/0toright0"/>
    <trip id="380" depart="28.50" from="2/2to3/2" to="0/5to0/6"/>
    <trip id="381" depart="28.57" from="4/0to3/0" to="0/1to0/2"/>
    <trip id="382" depart="28.65" from="1/9to0/9" to="3/4to2/4"/>
    <trip id="383" depart="28.72" from="4/7to4/8" to="1/9to1/8"/>
    <trip id="384" depart="28.80" from="2/3to2/2" to="2/6to2/5"/>
    <trip id="385" depart="28.87" from="1/5to1/6" to="3/8to4/8"/>
    <trip id="386" depart="28.95" from="left9to0/9" to="0/8to1/8"/>
    <trip id="387" depart="29.02" from="2/8to2/7" to="4/7to4/8"/>
    <trip id="388" depart="29.10" from="1/9to1/8" to="3/7to3/8"/>
    <trip id="389" depart="29.17" from="left5to0/5" to="0/5toleft5"/>
    <trip id="390" depart="29.25" from="bottom4to4/0" to="0/4to0/3"/>
    <trip id="391" depart="29.32" from="4/1to4/0" to="0/2to0/1"/>
    <trip id="392" depart="29.40" from="2/8to1/8" to="2/2to3/2"/>
    <trip id="393" depart="29.47" from="1/1to1/0" to="1/7to2/7"/>
    <trip id="394" depart="29.55" from="4/1to4/0" to="2/6to2/5"/>
    <trip id="395" depart="29.62" from="right2to4/2" to="1/6to0/6"/>
    <trip id="396" depart="29.70" from="0/1to1/1" to="4/7to4/6"/>
    <trip id="397" depart="29.77" from="0/1to0/2" to="4/0to4/1"/>
    <trip id="398" depart="29.85" from="3/5to3/4" to="2/9to2/8"/>
    <trip id="399" depart="29.92" from="left7to0/7" to="3/5to4/5"/>
    <trip id="400" depart="30.00" from="3/5to3/6" to="1/4to1/5"/>
    <trip id="401" depart="30.07" from="4/6to4/7" to="0/3to0/2"/>
    <trip id="402" depart="30.15" from="4/5to4/6" to="3/0to4/0"/>
    <trip id="403" depart="30.22" from="left6to0/6" to="2/9to1/9"/>
    <trip id="404" depart="30.30" from="3/3to3/2" to="0/5toleft5"/>
    <trip id="405" depart="30.37" from="1/2to0/2" to="0/9toleft9"/>
    <trip id="406" depart="30.45" from="top0to0/9" to="1/3to1/2"/>
    <trip id="407" depart="30.52" from="left2to0/2" to="2/4to3/4"/>
    <trip id="408" depart="30.60" from="1/4to0/4" to="2/3to1/3"/>
    <trip id="409" depart="30.67" from="3/8to4/8" to="1/6to1/5"/>
    <trip id="410" depart="30.75" from="right5to4/5" to="3/7to3/8"/>
    <trip id="411" depart="30.82" from="left6to0/6" to="2/6to2/7"/>
    <trip id="412" depart="30.90" from="right3to4/3" to="2/9totop2"/>
    <trip id="413" depart="30.97" from="2/8to2/9" to="2/6to2/7"/>
    <trip id="414" depart="31.05" from="2/9to2/8" to="3/1to2/1"/>
    <trip id="415" depart="31.12" from="0/8to0/7" to="2/4to2/3"/>
    <trip id="416" depart="31.20" from="3/1to3/2" to="2/8to2/7"/>
    <trip id="417" depart="31.27" from="1/7to1/6" to="4/2toright2"/>
    <trip id="418" depart="31.35" from="2/7to1/7" to="2/3to3/3"/>
    <trip id="419" depart="31.42" from="4/8to4/9" to="3/6to2/6"/>
    <trip id="420" depart="31.50" from="3/2to4/2" to="1/3to1/4"/>
    <trip id="421" depart="31.57" from="0/4to0/3" to="3/4to4/4"/>
    <trip id="422" depart="31.65" from="1/2to2/2" to="3/7to2/7"/>
    <trip id="423" depart="31.72" from="4/9to4/8" to="4/2to4/3"/>
    <trip id="424" depart="31.80" from="3/1to2/1" to="1/4to1/3"/>
    <trip id="425" depart="31.87" from="3/8to2/8" to="3/5to2/5"/>
    <trip id="426" depart="31.95" from="3/3to4/3" to="4/3toright3"/>
    <trip id="427" depart="32.02" from="3/4to4/4" to="4/8to4/7"/>
    <trip id="428" depart="32.10" from="right3to4/3" to="1/6to0/6"/>
    <trip id="429" depart="32.17" from="0/8to0/9" to="2/4to2/3"/>
    <trip id="430" depart="32.25" from="1/1to0/1" to="3/9to4/9"/>
    <trip id="431" depart="32.32" from="3/0to3/1" to="3/4to3/3"/>
    <trip id="432" depart="32.40" from="2/2to1/2" to="1/7to2/7"/>
    <trip id="433" depart="32.47" from="1/2to2/2" to="0/8to0/7"/>
    <trip id="434" depart="32.55" from="1/6to2/6" to="2/4to3/4"/>
    <trip id="435" depart="32.62" from="1/7to2/7" to="0/5to1/5"/>
    <trip id="436" depart="32.70" from="0/7to1/7" to="3/3to4/3"/>
    <trip id="437" depart="32.77" from="4/1to3/1" to="4/2to3/2"/>
    <trip id="438" depart="32.85" from="2/9to3/9" to="1/4to1/3"/>
    <trip id="439" depart="32.92" from="2/5to1/5" to="1/6to2/6"/>
    <trip id="440" depart="33.00" from="0/5to1/5" to="0/3to1/3"/>
    <trip id="441" depart="33.07" from="3/1to2/1" to="4/5to4/4"/>
    <trip id="442" depart="33.15" from="2/0to3/0" to="2/0to2/1"/>
    <trip id="443" depart="33.22" from="2/6to3/6" to="0/1to0/0"/>
    <trip id="444" depart="33.30" from="3/6to3/5" to="3/7to2/7"/>
    <trip id="445" depart="33.37" from="2/5to2/4" to="2/7to2/6"/>
    <trip id="446" depart="33.45" from="right5to4/5" to="4/4toright4"/>