<?xml version="1.0" encoding="UTF-8"?>

<!-- generated on Fri Aug  4 18:06:40 2017 by SUMO duarouter Version 0.30.0
<?xml version="1.0" encoding="UTF-8"?>

<configuration xmlns:xsi="http://www.w3.org/2001/XMLSchema-instance" xsi:noNamespaceSchemaLocation="http://sumo.dlr.de/xsd/duarouterConfiguration.xsd">

    <input>
        <net-file value="grid.net.xml"/>
        <trip-files value="grid-0p125/grid-0p125.trips.xml"/>
    </input>

    <output>
        <output-file value="grid-0p125/grid-0p125.rou.xml"/>
    </output>

    <processing>
        <ignore-errors value="true"/>
    </processing>

    <time>
        <begin value="0"/>
        <end value="100.0"/>
    </time>

    <report>
        <no-warnings value="true"/>
        <no-step-log value="true"/>
    </report>

</configuration>
-->

<routes xmlns:xsi="http://www.w3.org/2001/XMLSchema-instance" xsi:noNamespaceSchemaLocation="http://sumo.dlr.de/xsd/routes_file.xsd">
    <vehicle id="0" depart="0.00">
        <route edges="4/9to4/8 4/8to4/7 4/7to4/6 4/6to4/5 4/5to4/4 4/4to4/3 4/3to3/3"/>
    </vehicle>
    <vehicle id="1" depart="0.12">
        <route edges="3/4to2/4 2/4to2/5 2/5to2/6 2/6to2/7 2/7to2/8 2/8to1/8 1/8to1/9 1/9to2/9"/>
    </vehicle>
    <vehicle id="2" depart="0.25">
        <route edges="2/0to3/0 3/0to4/0 4/0toright0"/>
    </vehicle>
    <vehicle id="3" depart="0.38">
        <route edges="3/5to3/4 3/4to3/3 3/3to2/3"/>
    </vehicle>
    <vehicle id="4" depart="0.50">
        <route edges="2/0to3/0 3/0to3/1 3/1to3/2 3/2to3/3 3/3to3/4 3/4to3/5 3/5to2/5 2/5to2/6 2/6to3/6 3/6to3/5"/>
    </vehicle>
    <vehicle id="5" depart="0.62">
        <route edges="3/5to3/4 3/4to2/4 2/4to2/5 2/5to2/6 2/6to2/7 2/7to2/8 2/8to1/8 1/8to1/9 1/9to0/9 0/9to0/8"/>
    </vehicle>
    <vehicle id="6" depart="0.75">
        <route edges="1/1to2/1 2/1to2/2 2/2to2/3 2/3to2/4 2/4to2/5 2/5to2/6 2/6to1/6 1/6to0/6"/>
    </vehicle>
    <vehicle id="7" depart="0.88">
        <route edges="4/5to4/6 4/6to4/7 4/7to4/8 4/8to3/8 3/8to2/8"/>
    </vehicle>
    <vehicle id="8" depart="1.00">
        <route edges="3/2to4/2 4/2to4/1 4/1to4/0 4/0to3/0 3/0to3/1 3/1to4/1 4/1to4/2 4/2to3/2"/>
    </vehicle>
    <vehicle id="9" depart="1.12">
        <route edges="3/7to3/6 3/6to4/6 4/6to4/7 4/7to4/8"/>
    </vehicle>
    <vehicle id="10" depart="1.25">
        <route edges="left5to0/5 0/5to0/4 0/4to0/3 0/3to0/2 0/2to0/1"/>
    </vehicle>
    <vehicle id="11" depart="1.38">
        <route edges="0/8to0/7 0/7to1/7 1/7to2/7 2/7to3/7 3/7to4/7"/>
    </vehicle>
    <vehicle id="12" depart="1.50">
        <route edges="2/6to1/6 1/6to1/7 1/7to2/7 2/7to3/7 3/7to4/7"/>
    </vehicle>
    <vehicle id="13" depart="1.62">
        <route edges="4/0to3/0 3/0to3/1 3/1to2/1 2/1to2/2 2/2to3/2"/>
    </vehicle>
    <vehicle id="14" depart="1.75">
        <route edges="top0to0/9 0/9to0/8 0/8to1/8 1/8to2/8 2/8to3/8 3/8to3/9 3/9to2/9"/>
    </vehicle>
    <vehicle id="15" depart="1.88">
        <route edges="3/4to4/4 4/4to4/5 4/5to3/5 3/5to2/5 2/5to1/5 1/5to0/5"/>
    </vehicle>
    <vehicle id="16" depart="2.00">
        <route edges="3/9to2/9 2/9to2/8 2/8to2/7 2/7to2/6 2/6to2/5 2/5to2/4 2/4to1/4 1/4to0/4 0/4toleft4"/>
    </vehicle>
    <vehicle id="17" depart="2.12">
        <route edges="top4to4/9 4/9to4/8 4/8to4/7 4/7to4/6 4/6to4/5 4/5to3/5 3/5to2/5 2/5to1/5 1/5to1/4 1/4to2/4"/>
    </vehicle>
    <vehicle id="18" depart="2.25">
        <route edges="2/1to1/1 1/1to1/2 1/2to1/3 1/3to1/4 1/4to1/5 1/5to1/6 1/6to1/7 1/7to1/8 1/8to1/9"/>
    </vehicle>
    <vehicle id="19" depart="2.38">
        <route edges="left7to0/7 0/7to0/6 0/6to0/5 0/5to0/4 0/4to0/3 0/3to0/2 0/2to0/1 0/1to1/1 1/1to1/0 1/0to0/0 0/0to0/1"/>
    </vehicle>
    <vehicle id="20" depart="2.50">
        <route edges="2/9to1/9 1/9to1/8 1/8to1/7 1/7to2/7 2/7to3/7 3/7to3/6 3/6to2/6"/>
    </vehicle>
    <vehicle id="21" depart="2.62">
        <route edges="3/8to3/9 3/9to2/9 2/9to2/8 2/8to2/7 2/7to2/6 2/6to2/5 2/5to3/5 3/5to3/4 3/4to3/3 3/3to4/3 4/3to4/4"/>
    </vehicle>
    <vehicle id="22" depart="2.75">
        <route edges="left6to0/6 0/6to0/5 0/5to0/4 0/4to1/4 1/4to2/4 2/4to3/4 3/4to4/4"/>
    </vehicle>
    <vehicle id="23" depart="2.88">
        <route edges="2/2to2/1 2/1to1/1 1/1to1/2 1/2to1/3 1/3to1/4 1/4to1/5 1/5to2/5 2/5to2/6 2/6to2/7 2/7to2/8 2/8to2/9 2/9to1/9"/>
    </vehicle>
    <vehicle id="24" depart="3.00">
        <route edges="1/4to1/3 1/3to2/3 2/3to2/4 2/4to2/5 2/5to2/6 2/6to2/7 2/7to3/7 3/7to3/8 3/8to4/8"/>
    </vehicle>
    <vehicle id="25" depart="3.12">
        <route edges="2/4to3/4 3/4to3/3 3/3to3/2 3/2to2/2 2/2to1/2 1/2to1/1 1/1to2/1"/>
    </vehicle>
    <vehicle id="26" depart="3.25">
        <route edges="3/6to3/5 3/5to2/5 2/5to2/6 2/6to2/7 2/7to1/7 1/7to1/6"/>
    </vehicle>
    <vehicle id="27" depart="3.38">
        <route edges="4/6to3/6 3/6to3/5 3/5to3/4 3/4to3/3 3/3to2/3 2/3to1/3 1/3to0/3"/>
    </vehicle>
    <vehicle id="28" depart="3.50">
        <route edges="top2to2/9 2/9to2/8 2/8to1/8 1/8to0/8 0/8to0/9 0/9to1/9"/>
    </vehicle>
    <vehicle id="29" depart="3.62">
        <route edges="1/4to0/4 0/4to0/5 0/5to0/6 0/6to1/6 1/6to2/6 2/6to3/6 3/6to3/5"/>
    </vehicle>
    <vehicle id="30" depart="3.75">
        <route edges="4/7to4/8 4/8to3/8 3/8to3/7 3/7to3/6 3/6to3/5 3/5to3/4 3/4to2/4 2/4to2/3 2/3to2/2 2/2to1/2 1/2to0/2 0/2to0/1 0/1to1/1"/>
    </vehicle>
    <vehicle id="31" depart="3.88">
        <route edges="2/9to2/8 2/8to3/8 3/8to3/9 3/9to2/9 2/9to1/9 1/9to1/8"/>
    </vehicle>
    <vehicle id="32" depart="4.00">
        <route edges="2/4to1/4 1/4to1/5 1/5to1/6 1/6to1/7 1/7to1/8 1/8to0/8"/>
    </vehicle>
    <vehicle id="33" depart="4.12">
        <route edges="1/5to1/6 1/6to2/6 2/6to3/6 3/6to3/5 3/5to2/5"/>
    </vehicle>
    <vehicle id="34" depart="4.25">
        <route edges="2/2to2/3 2/3to2/4 2/4to2/5 2/5to2/6 2/6to3/6 3/6to3/7 3/7to2/7"/>
    </vehicle>
    <vehicle id="35" depart="4.38">
        <route edges="2/6to3/6 3/6to3/5 3/5to3/4 3/4to3/3 3/3to3/2 3/2to3/1 3/1to2/1 2/1to1/1"/>
    </vehicle>
    <vehicle id="36" depart="4.50">
        <route edges="3/2to2/2 2/2to2/1 2/1to2/0 2/0to1/0 1/0to0/0 0/0to0/1"/>
    </vehicle>
    <vehicle id="37" depart="4.62">
        <route edges="right9to4/9 4/9to3/9 3/9to2/9 2/9to1/9 1/9to0/9 0/9totop0"/>
    </vehicle>
    <vehicle id="38" depart="4.75">
        <route edges="right9to4/9 4/9to4/8 4/8to4/7 4/7to4/6 4/6to4/5 4/5to4/4 4/4to3/4 3/4to2/4 2/4to2/5"/>
    </vehicle>
    <vehicle id="39" depart="4.88">
        <route edges="0/8to0/9 0/9to1/9 1/9to1/8 1/8to1/7 1/7to1/6 1/6to1/5 1/5to2/5 2/5to2/4 2/4to2/3 2/3to2/2 2/2to3/2 3/2to3/1 3/1to2/1"/>
    </vehicle>
    <vehicle id="40" depart="5.00">
        <route edges="4/9to3/9 3/9to3/8 3/8to3/7 3/7to3/6 3/6to3/5 3/5to4/5"/>
    </vehicle>
    <vehicle id="41" depart="5.12">
        <route edges="0/3to0/2 0/2to1/2 1/2to1/3 1/3to1/4 1/4to1/5 1/5to2/5"/>
    </vehicle>
    <vehicle id="42" depart="5.25">
        <route edges="0/4to1/4 1/4to1/5 1/5to1/6 1/6to2/6 2/6to3/6"/>
    </vehicle>
    <vehicle id="43" depart="5.38">
        <route edges="3/1to3/2 3/2to2/2 2/2to2/3 2/3to3/3 3/3to3/2"/>
    </vehicle>
    <vehicle id="44" depart="5.50">
        <route edges="3/3to3/4 3/4to3/5 3/5to3/6 3/6to3/7 3/7to4/7 4/7to4/6"/>
    </vehicle>
    <vehicle id="45" depart="5.62">
        <route edges="2/0to2/1 2/1to2/2 2/2to2/3 2/3to2/4 2/4to2/5 2/5to2/6 2/6to3/6 3/6to4/6"/>
    </vehicle>
    <vehicle id="46" depart="5.75">
        <route edges="4/1to4/2 4/2to3/2 3/2to3/1 3/1to2/1 2/1to2/0 2/0to3/0"/>
    </vehicle>
    <vehicle id="47" depart="5.88">
        <route edges="1/1to2/1 2/1to3/1 3/1to3/2"/>
    </vehicle>
    <vehicle id="48" depart="6.00">
        <route edges="1/2to2/2 2/2to2/1 2/1to1/1 1/1to0/1 0/1to0/2 0/2to0/3"/>
    </vehicle>
    <vehicle id="49" depart="6.12">
        <route edges="4/8to3/8 3/8to2/8 2/8to1/8 1/8to1/9 1/9to0/9 0/9totop0"/>
    </vehicle>
    <vehicle id="50" depart="6.25">
        <route edges="3/6to3/5"/>
    </vehicle>
    <vehicle id="51" depart="6.38">
        <route edges="top4to4/9 4/9to4/8 4/8to4/7 4/7to4/6 4/6to4/5 4/5to3/5 3/5to2/5 2/5to2/4 2/4to2/3 2/3to1/3 1/3to0/3 0/3to0/2"/>
    </vehicle>
    <vehicle id="52" depart="6.50">
        <route edges="0/6to0/5 0/5to0/4 0/4to0/3 0/3to0/2 0/2to0/1 0/1to1/1 1/1to2/1 2/1to2/0 2/0to3/0"/>
    </vehicle>
    <vehicle id="53" depart="6.62">
        <route edges="3/1to3/0 3/0to2/0 2/0to2/1 2/1to2/2 2/2to2/3 2/3to2/4 2/4to3/4 3/4to3/5 3/5to3/6 3/6to3/7 3/7to3/8"/>
    </vehicle>
    <vehicle id="54" depart="6.75">
        <route edges="2/8to2/7 2/7to3/7 3/7to3/8 3/8to2/8 2/8to1/8"/>
    </vehicle>
    <vehicle id="55" depart="6.88">
        <route edges="2/0to2/1 2/1to2/2 2/2to2/3 2/3to1/3 1/3to0/3 0/3to0/4"/>
    </vehicle>
    <vehicle id="56" depart="7.00">
        <route edges="1/3to1/4 1/4to2/4 2/4to2/3 2/3to2/2 2/2to3/2"/>
    </vehicle>
    <vehicle id="57" depart="7.12">
        <route edges="1/1to2/1 2/1to2/2 2/2to3/2 3/2to4/2"/>
    </vehicle>
    <vehicle id="58" depart="7.25">
        <route edges="1/3to0/3 0/3to0/4 0/4to0/5 0/5to0/6 0/6to0/7 0/7to0/8 0/8to1/8 1/8to2/8 2/8to2/9 2/9to1/9"/>
    </vehicle>
    <vehicle id="59" depart="7.38">
        <route edges="2/3to1/3 1/3to1/2 1/2to1/1 1/1to2/1 2/1to3/1 3/1to4/1 4/1toright1"/>
    </vehicle>
    <vehicle id="60" depart="7.50">
        <route edges="0/2to1/2 1/2to1/1 1/1to2/1"/>
    </vehicle>
    <vehicle id="61" depart="7.62">
        <route edges="2/4to3/4 3/4to3/5 3/5to3/6 3/6to2/6 2/6to1/6"/>
    </vehicle>
    <vehicle id="62" depart="7.75">
        <route edges="1/9to0/9 0/9to0/8 0/8to0/7 0/7to1/7 1/7to2/7 2/7to3/7 3/7to4/7 4/7to4/8"/>
    </vehicle>
    <vehicle id="63" depart="7.88">
        <route edges="0/8to0/9 0/9to1/9 1/9to1/8 1/8to1/7 1/7to1/6 1/6to1/5 1/5to1/4"/>
    </vehicle>
    <vehicle id="64" depart="8.00">
        <route edges="2/3to3/3 3/3to3/4 3/4to3/5 3/5to2/5 2/5to1/5 1/5to0/5 0/5to0/6 0/6to1/6"/>
    </vehicle>
    <vehicle id="65" depart="8.12">
        <route edges="1/9to2/9 2/9to2/8 2/8to2/7 2/7to1/7 1/7to1/6"/>
    </vehicle>
    <vehicle id="66" depart="8.25">
        <route edges="4/4to4/5 4/5to3/5 3/5to3/4 3/4to3/3 3/3to3/2 3/2to3/1 3/1to3/0"/>
    </vehicle>
    <vehicle id="67" depart="8.38">
        <route edges="3/3to2/3 2/3to1/3 1/3to0/3 0/3to0/4 0/4toleft4"/>
    </vehicle>
    <vehicle id="68" depart="8.50">
        <route edges="4/6to3/6 3/6to3/5 3/5to3/4 3/4to3/3 3/3to3/2 3/2to4/2 4/2to4/3"/>
    </vehicle>
    <vehicle id="69" depart="8.62">
        <route edges="2/7to2/6 2/6to1/6 1/6to1/7 1/7to1/8 1/8to2/8 2/8to2/9"/>
    </vehicle>
    <vehicle id="70" depart="8.75">
        <route edges="1/4to1/5 1/5to1/6 1/6to1/7 1/7to1/8 1/8to0/8 0/8toleft8"/>
    </vehicle>
    <vehicle id="71" depart="8.88">
        <route edges="0/8to0/7 0/7to0/6 0/6to0/5 0/5to1/5 1/5to1/4"/>
    </vehicle>
    <vehicle id="72" depart="9.00">
        <route edges="4/3to4/4 4/4to4/5 4/5to3/5"/>
    </vehicle>
    <vehicle id="73" depart="9.12">
        <route edges="2/4to2/5 2/5to1/5 1/5to1/4 1/4to1/3 1/3to1/2 1/2to1/1 1/1to2/1 2/1to2/0 2/0to3/0"/>
    </vehicle>
    <vehicle id="74" depart="9.25">
        <route edges="4/0to3/0 3/0to3/1"/>
    </vehicle>
    <vehicle id="75" depart="9.38">
        <route edges="3/6to3/5 3/5to3/4 3/4to3/3 3/3to4/3"/>
    </vehicle>
    <vehicle id="76" depart="9.50">
        <route edges="right7to4/7 4/7to4/6 4/6to4/5 4/5to4/4 4/4to4/3 4/3to3/3 3/3to3/2 3/2to4/2 4/2to4/3"/>
    </vehicle>
    <vehicle id="77" depart="9.62">
        <route edges="4/9to4/8 4/8to4/7 4/7to4/6 4/6to4/5 4/5to4/4 4/4to3/4 3/4to2/4 2/4to2/3 2/3to1/3 1/3to0/3 0/3to0/4"/>
    </vehicle>
    <vehicle id="78" depart="9.75">
        <route edges="right7to4/7 4/7to4/6 4/6to4/5 4/5to4/4 4/4to3/4 3/4to3/5"/>
    </vehicle>
    <vehicle id="79" depart="9.88">
        <route edges="1/3to2/3 2/3to2/4 2/4to2/5 2/5to2/6 2/6to2/7 2/7to2/8 2/8to1/8 1/8to1/9 1/9to0/9 0/9to0/8"/>
    </vehicle>
    <vehicle id="80" depart="10.00">
        <route edges="2/7to2/8 2/8to1/8 1/8to1/7 1/7to1/6 1/6to1/5 1/5to1/4 1/4to2/4 2/4to2/3 2/3to2/2 2/2to2/1 2/1to2/0"/>
    </vehicle>
    <vehicle id="81" depart="10.12">
        <route edges="4/7to3/7 3/7to3/8 3/8to4/8"/>
    </vehicle>
    <vehicle id="82" depart="10.25">
        <route edges="3/3to4/3 4/3to4/2 4/2to3/2 3/2to2/2 2/2to2/3 2/3to1/3 1/3to0/3 0/3to0/2"/>
    </vehicle>
    <vehicle id="83" depart="10.38">
        <route edges="0/5to0/6 0/6to1/6 1/6to1/5 1/5to1/4 1/4to1/3 1/3to1/2 1/2to2/2 2/2to3/2 3/2to3/1 3/1to2/1"/>
    </vehicle>
    <vehicle id="84" depart="10.50">
        <route edges="1/5to1/4 1/4to1/3 1/3to1/2 1/2to1/1 1/1to1/0 1/0to2/0 2/0to3/0 3/0to4/0 4/0to4/1"/>
    </vehicle>
    <vehicle id="85" depart="10.62">
        <route edges="1/3to1/2 1/2to0/2 0/2to0/3"/>
    </vehicle>
    <vehicle id="86" depart="10.75">
        <route edges="0/0to1/0 1/0to1/1 1/1to1/2 1/2to1/3 1/3to1/4 1/4to2/4 2/4to2/3"/>
    </vehicle>
    <vehicle id="87" depart="10.88">
        <route edges="3/8to3/9 3/9to4/9 4/9to4/8 4/8to4/7 4/7to3/7 3/7to2/7"/>
    </vehicle>
    <vehicle id="88" depart="11.00">
        <route edges="1/5to1/4 1/4to0/4 0/4to0/5 0/5to1/5"/>
    </vehicle>
    <vehicle id="89" depart="11.12">
        <route edges="2/5to2/6 2/6to2/7 2/7to2/8 2/8to3/8"/>
    </vehicle>
    <vehicle id="90" depart="11.25">
        <route edges="2/3to3/3 3/3to3/4 3/4to3/5 3/5to3/6 3/6to2/6 2/6to2/7"/>
    </vehicle>
    <vehicle id="91" depart="11.38">
        <route edges="0/6to1/6 1/6to1/5 1/5to1/4 1/4to1/3 1/3to1/2 1/2to2/2 2/2to3/2 3/2to4/2 4/2to4/3"/>
    </vehicle>
    <vehicle id="92" depart="11.50">
        <route edges="top0to0/9 0/9to0/8 0/8to0/7 0/7to0/6 0/6to0/5 0/5to0/4 0/4to0/3 0/3to0/2 0/2to1/2 1/2to2/2"/>
    </vehicle>
    <vehicle id="93" depart="11.62">
        <route edges="1/9to0/9 0/9to0/8 0/8to0/7 0/7to0/6 0/6to0/5 0/5to0/4 0/4to0/3 0/3to0/2 0/2to0/1 0/1to0/0 0/0to1/0 1/0to1/1"/>
    </vehicle>
    <vehicle id="94" depart="11.75">
        <route edges="0/1to0/0 0/0to1/0 1/0to1/1 1/1to1/2 1/2to1/3 1/3to2/3 2/3to3/3 3/3to4/3 4/3to4/4"/>
    </vehicle>
    <vehicle id="95" depart="11.88">
        <route edges="3/1to3/0 3/0to2/0 2/0to2/1 2/1to2/2 2/2to1/2 1/2to0/2 0/2to0/3"/>
    </vehicle>
    <vehicle id="96" depart="12.00">
        <route edges="4/4to3/4 3/4to2/4 2/4to1/4 1/4to0/4 0/4toleft4"/>
    </vehicle>
    <vehicle id="97" depart="12.12">
        <route edges="1/5to1/6 1/6to0/6 0/6to0/5 0/5to0/4 0/4to0/3 0/3to0/2 0/2to1/2 1/2to2/2 2/2to2/3"/>
    </vehicle>
    <vehicle id="98" depart="12.25">
        <route edges="1/7to1/6 1/6to1/5 1/5to1/4 1/4to2/4"/>
    </vehicle>
    <vehicle id="99" depart="12.38">
        <route edges="right6to4/6 4/6to4/5 4/5to4/4 4/4to3/4 3/4to2/4 2/4to1/4 1/4to0/4 0/4toleft4"/>
    </vehicle>
    <vehicle id="100" depart="12.50">
        <route edges="2/1to1/1 1/1to1/2 1/2to1/3 1/3to1/4 1/4to1/5 1/5to1/6 1/6to0/6 0/6to0/7 0/7to0/8 0/8to1/8"/>
    </vehicle>
    <vehicle id="101" depart="12.62">
        <route edges="right5to4/5 4/5to3/5 3/5to2/5 2/5to1/5 1/5to1/6 1/6to2/6"/>
    </vehicle>
    <vehicle id="102" depart="12.75">
        <route edges="bottom2to2/0 2/0to1/0 1/0to0/0"/>
    </vehicle>
    <vehicle id="103" depart="12.88">
        <route edges="4/8to4/9 4/9to3/9 3/9to3/8 3/8to3/7 3/7to3/6 3/6to3/5 3/5to2/5"/>
    </vehicle>
    <vehicle id="104" depart="13.00">
        <route edges="1/7to1/8 1/8to0/8 0/8to0/7 0/7to0/6 0/6to1/6"/>
    </vehicle>
    <vehicle id="105" depart="13.12">
        <route edges="0/3to0/4 0/4to0/5 0/5to0/6 0/6to0/7 0/7to0/8 0/8to1/8 1/8to2/8 2/8to2/9 2/9to3/9 3/9totop3"/>
    </vehicle>
    <vehicle id="106" depart="13.25">
        <route edges="4/3to4/2 4/2to3/2 3/2to3/3 3/3to3/4 3/4to2/4 2/4to1/4"/>
    </vehicle>
    <vehicle id="107" depart="13.38">
        <route edges="2/7to2/6 2/6to2/5 2/5to2/4 2/4to1/4 1/4to1/3 1/3to2/3 2/3to2/4"/>
    </vehicle>
    <vehicle id="108" depart="13.50">
        <route edges="4/0to4/1 4/1to4/2 4/2to4/3 4/3to4/4 4/4to4/5 4/5to4/6 4/6to4/7 4/7to4/8 4/8to4/9 4/9to3/9"/>
    </vehicle>
    <vehicle id="109" depart="13.62">
        <route edges="2/7to1/7 1/7to1/8 1/8to2/8 2/8to3/8 3/8to4/8 4/8to4/9 4/9to3/9"/>
    </vehicle>
    <vehicle id="110" depart="13.75">
        <route edges="2/4to1/4 1/4to1/5 1/5to1/6 1/6to1/7 1/7to1/8 1/8to2/8 2/8to3/8 3/8to3/9"/>
    </vehicle>
    <vehicle id="111" depart="13.88">
        <route edges="0/0to0/1 0/1to0/2 0/2to0/3 0/3to0/4 0/4to0/5 0/5to1/5 1/5to2/5 2/5to2/6 2/6to3/6 3/6to3/7"/>
    </vehicle>
    <vehicle id="112" depart="14.00">
        <route edges="2/7to3/7 3/7to3/6 3/6to3/5 3/5to2/5 2/5to1/5"/>
    </vehicle>
    <vehicle id="113" depart="14.12">
        <route edges="3/6to2/6 2/6to2/5 2/5to2/4 2/4to1/4 1/4to1/3 1/3to2/3"/>
    </vehicle>
    <vehicle id="114" depart="14.25">
        <route edges="0/6to0/5 0/5to1/5 1/5to1/6 1/6to1/7 1/7to0/7 0/7to0/6"/>
    </vehicle>
    <vehicle id="115" depart="14.38">
        <route edges="0/7to1/7 1/7to1/6 1/6to1/5 1/5to1/4 1/4to2/4 2/4to2/3 2/3to1/3"/>
    </vehicle>
    <vehicle id="116" depart="14.50">
        <route edges="0/4to0/3 0/3to1/3 1/3to1/4 1/4to1/5 1/5to0/5"/>
    </vehicle>
    <vehicle id="117" depart="14.62">
        <route edges="1/2to2/2 2/2to2/3 2/3to2/4 2/4to2/5 2/5to2/6 2/6to2/7 2/7to1/7 1/7to1/8 1/8to1/9 1/9totop1"/>
    </vehicle>
    <vehicle id="118" depart="14.75">
        <route edges="3/1to2/1 2/1to2/2 2/2to2/3 2/3to2/4 2/4to2/5 2/5to2/6 2/6to3/6 3/6to3/7 3/7to3/8 3/8to4/8 4/8to4/9 4/9to3/9"/>
    </vehicle>
    <vehicle id="119" depart="14.88">
        <route edges="2/3to1/3 1/3to1/4 1/4to1/5 1/5to1/6 1/6to1/7 1/7to1/8 1/8to0/8"/>
    </vehicle>
    <vehicle id="120" depart="15.00">
        <route edges="4/6to3/6 3/6to2/6 2/6to1/6 1/6to1/7 1/7to1/8 1/8to2/8"/>
    </vehicle>
    <vehicle id="121" depart="15.12">
        <route edges="0/2to0/1 0/1to1/1 1/1to1/2 1/2to1/3 1/3to1/4 1/4to1/5 1/5to2/5 2/5to2/6 2/6to2/7 2/7to2/8 2/8to3/8 3/8to4/8 4/8to4/9"/>
    </vehicle>
    <vehicle id="122" depart="15.25">
        <route edges="2/7to2/6 2/6to1/6 1/6to1/7 1/7to1/8 1/8to1/9 1/9to0/9 0/9to0/8"/>
    </vehicle>
    <vehicle id="123" depart="15.38">
        <route edges="0/4to1/4 1/4to2/4 2/4to2/5 2/5to1/5"/>
    </vehicle>
    <vehicle id="124" depart="15.50">
        <route edges="1/1to1/2 1/2to1/3 1/3to1/4 1/4to0/4"/>
    </vehicle>
    <vehicle id="125" depart="15.62">
        <route edges="0/0to0/1 0/1to0/2 0/2to0/3 0/3to0/4 0/4to0/5 0/5to0/6 0/6to0/7 0/7to0/8 0/8to1/8 1/8to1/9 1/9to2/9 2/9to3/9 3/9to4/9 4/9toright9"/>
    </vehicle>
    <vehicle id="126" depart="15.75">
        <route edges="right0to4/0 4/0to4/1 4/1to4/2 4/2to4/3 4/3to4/4 4/4to4/5 4/5to4/6 4/6to4/7 4/7to3/7 3/7to3/8 3/8to2/8 2/8to1/8 1/8to0/8"/>
    </vehicle>
    <vehicle id="127" depart="15.88">
        <route edges="4/8to4/7 4/7to3/7 3/7to3/8 3/8to3/9 3/9to2/9 2/9to1/9 1/9totop1"/>
    </vehicle>
    <vehicle id="128" depart="16.00">
        <route edges="4/3to3/3 3/3to3/4 3/4to3/5 3/5to3/6 3/6to3/7 3/7to3/8 3/8to4/8 4/8to4/7"/>
    </vehicle>
    <vehicle id="129" depart="16.12">
        <route edges="4/9to4/8 4/8to4/7 4/7to4/6 4/6to4/5 4/5to3/5 3/5to2/5 2/5to1/5 1/5to0/5 0/5toleft5"/>
    </vehicle>
    <vehicle id="130" depart="16.25">
        <route edges="3/3to3/4 3/4to3/5 3/5to2/5 2/5to2/6 2/6to3/6 3/6to3/5"/>
    </vehicle>
    <vehicle id="131" depart="16.38">
        <route edges="2/6to1/6 1/6to1/5 1/5to1/4 1/4to1/3 1/3to1/2 1/2to1/1 1/1to1/0 1/0tobottom1"/>
    </vehicle>
    <vehicle id="132" depart="16.50">
        <route edges="1/0to2/0 2/0to2/1 2/1to2/2 2/2to2/3 2/3to2/4 2/4to2/5 2/5to2/6 2/6to2/7 2/7to2/8"/>
    </vehicle>
    <vehicle id="133" depart="16.62">
        <route edges="3/7to4/7 4/7to4/6 4/6to4/5 4/5to4/4 4/4to4/3 4/3to3/3 3/3to3/4"/>
    </vehicle>
    <vehicle id="134" depart="16.75">
        <route edges="3/0to2/0 2/0to2/1 2/1to2/2 2/2to2/3 2/3to2/4 2/4to2/5 2/5to1/5 1/5to1/6 1/6to2/6"/>
    </vehicle>
    <vehicle id="135" depart="16.88">
        <route edges="1/9to1/8 1/8to1/7 1/7to1/6 1/6to1/5 1/5to2/5 2/5to3/5 3/5to4/5 4/5to4/4 4/4to3/4"/>
    </vehicle>
    <vehicle id="136" depart="17.00">
        <route edges="1/3to0/3 0/3to0/2 0/2to1/2 1/2to2/2 2/2to2/3 2/3to3/3 3/3to4/3 4/3to4/4"/>
    </vehicle>
    <vehicle id="137" depart="17.12">
        <route edges="1/6to1/5 1/5to2/5 2/5to2/6 2/6to2/7 2/7to2/8 2/8to2/9 2/9to3/9 3/9to4/9 4/9toright9"/>
    </vehicle>
    <vehicle id="138" depart="17.25">
        <route edges="4/1to3/1 3/1to2/1"/>
    </vehicle>
    <vehicle id="139" depart="17.38">
        <route edges="left9to0/9 0/9to0/8 0/8to0/7 0/7to0/6 0/6to0/5"/>
    </vehicle>
    <vehicle id="140" depart="17.50">
        <route edges="right4to4/4 4/4to4/5 4/5to4/6 4/6to4/7 4/7to4/8 4/8to3/8"/>
    </vehicle>
    <vehicle id="141" depart="17.62">
        <route edges="4/1to3/1 3/1to3/0 3/0to4/0 4/0to4/1 4/1toright1"/>
    </vehicle>
    <vehicle id="142" depart="17.75">
        <route edges="0/2to0/1 0/1to1/1 1/1to1/2 1/2to1/3 1/3to2/3 2/3to3/3 3/3to4/3 4/3toright3"/>
    </vehicle>
    <vehicle id="143" depart="17.88">
        <route edges="1/4to0/4 0/4to0/5 0/5to0/6 0/6to1/6 1/6to2/6 2/6to2/5"/>
    </vehicle>
    <vehicle id="144" depart="18.00">
        <route edges="left0to0/0 0/0to1/0 1/0tobottom1"/>
    </vehicle>
    <vehicle id="145" depart="18.12">
        <route edges="3/1to4/1 4/1to4/2 4/2to4/3 4/3to4/4 4/4to3/4 3/4to2/4 2/4to2/3"/>
    </vehicle>
    <vehicle id="146" depart="18.25">
        <route edges="top4to4/9 4/9to4/8 4/8to4/7 4/7to4/6 4/6to4/5 4/5to4/4 4/4to4/3 4/3to4/2 4/2to3/2 3/2to3/1 3/1to2/1 2/1to1/1 1/1to1/0 1/0to2/0"/>
    </vehicle>
    <vehicle id="147" depart="18.38">
        <route edges="right3to4/3 4/3to3/3 3/3to2/3 2/3to1/3 1/3to0/3"/>
    </vehicle>
    <vehicle id="148" depart="18.50">
        <route edges="2/6to2/7 2/7to1/7 1/7to1/6 1/6to1/5 1/5to1/4 1/4to1/3 1/3to1/2 1/2to1/1 1/1to2/1 2/1to2/2"/>
    </vehicle>
    <vehicle id="149" depart="18.62">
        <route edges="right3to4/3 4/3to4/4 4/4to4/5 4/5to4/6 4/6to4/7 4/7to4/8 4/8to4/9"/>
    </vehicle>
    <vehicle id="150" depart="18.75">
        <route edges="right9to4/9 4/9to4/8 4/8to3/8 3/8to2/8 2/8to1/8 1/8to1/9"/>
    </vehicle>
    <vehicle id="151" depart="18.88">
        <route edges="0/3to1/3 1/3to1/4 1/4to1/5 1/5to1/6 1/6to1/7 1/7to1/8 1/8to1/9 1/9totop1"/>
    </vehicle>
    <vehicle id="152" depart="19.00">
        <route edges="1/4to2/4 2/4to3/4 3/4to3/5"/>
    </vehicle>
    <vehicle id="153" depart="19.12">
        <route edges="top2to2/9 2/9to3/9 3/9to3/8 3/8to2/8"/>
    </vehicle>
    <vehicle id="154" depart="19.25">
        <route edges="2/2to2/3 2/3to2/4 2/4to2/5 2/5to2/6 2/6to2/7 2/7to2/8 2/8to2/9 2/9to3/9 3/9to4/9 4/9to4/8"/>
    </vehicle>
    <vehicle id="155" depart="19.38">
        <route edges="left8to0/8 0/8to0/7 0/7to0/6 0/6to0/5 0/5to0/4 0/4to1/4 1/4to2/4 2/4to2/3 2/3to3/3"/>
    </vehicle>
    <vehicle id="156" depart="19.50">
        <route edges="2/6to1/6 1/6to1/5 1/5to1/4 1/4to0/4 0/4toleft4"/>
    </vehicle>
    <vehicle id="157" depart="19.62">
        <route edges="4/8to4/9 4/9to3/9 3/9to3/8 3/8to2/8 2/8to1/8 1/8to1/7"/>
    </vehicle>
    <vehicle id="158" depart="19.75">
        <route edges="2/3to3/3 3/3to3/4 3/4to3/5 3/5to3/6 3/6to3/7 3/7to2/7 2/7to1/7 1/7to0/7 0/7toleft7"/>
    </vehicle>
    <vehicle id="159" depart="19.88">
        <route edges="3/3to3/2 3/2to2/2 2/2to2/3 2/3to2/4 2/4to2/5 2/5to3/5 3/5to4/5 4/5to4/4"/>
    </vehicle>
    <vehicle id="160" depart="20.00">
        <route edges="2/9to2/8 2/8to2/7 2/7to2/6 2/6to2/5 2/5to2/4 2/4to3/4 3/4to4/4 4/4to4/3"/>
    </vehicle>
    <vehicle id="161" depart="20.12">
        <route edges="1/2to0/2 0/2to0/3 0/3to0/4 0/4to0/5 0/5to0/6 0/6to1/6 1/6to1/7"/>
    </vehicle>
    <vehicle id="162" depart="20.25">
        <route edges="0/1to0/0 0/0to1/0 1/0to1/1 1/1to1/2 1/2to1/3 1/3to1/4 1/4to2/4 2/4to2/5 2/5to2/6 2/6to3/6 3/6to4/6 4/6to4/7 4/7to3/7"/>
    </vehicle>
    <vehicle id="163" depart="20.38">
        <route edges="3/8to4/8 4/8to4/7 4/7to4/6 4/6to4/5 4/5to4/4 4/4to4/3 4/3to3/3 3/3to3/2 3/2to3/1 3/1to3/0 3/0to2/0 2/0to2/1"/>
    </vehicle>
    <vehicle id="164" depart="20.50">
        <route edges="3/4to2/4 2/4to2/5 2/5to3/5 3/5to4/5 4/5to4/4"/>
    </vehicle>
    <vehicle id="165" depart="20.62">
        <route edges="4/7to3/7 3/7to3/6 3/6to3/5 3/5to4/5 4/5to4/4 4/4to3/4"/>
    </vehicle>
    <vehicle id="166" depart="20.75">
        <route edges="1/8to2/8 2/8to2/7 2/7to1/7 1/7to0/7 0/7to0/8 0/8to0/9"/>
    </vehicle>
    <vehicle id="167" depart="20.88">
        <route edges="3/6to2/6 2/6to2/7 2/7to3/7 3/7to3/6"/>
    </vehicle>
    <vehicle id="168" depart="21.00">
        <route edges="4/4to3/4 3/4to3/3 3/3to3/2 3/2to3/1 3/1to3/0 3/0to2/0 2/0to1/0 1/0to0/0 0/0toleft0"/>
    </vehicle>
    <vehicle id="169" depart="21.12">
        <route edges="0/5to1/5 1/5to1/4 1/4to0/4 0/4to0/3"/>
    </vehicle>
    <vehicle id="170" depart="21.25">
        <route edges="1/0to0/0 0/0to0/1 0/1to0/2 0/2to0/3 0/3to0/4 0/4to0/5 0/5to1/5 1/5to1/6 1/6to1/7 1/7to1/8 1/8to1/9 1/9to0/9 0/9to0/8"/>
    </vehicle>
    <vehicle id="171" depart="21.38">
        <route edges="0/6to0/7 0/7to1/7 1/7to1/6 1/6to1/5 1/5to1/4 1/4to1/3 1/3to2/3 2/3to2/2 2/2to3/2 3/2to4/2 4/2to4/3"/>
    </vehicle>
    <vehicle id="172" depart="21.50">
        <route edges="1/7to1/8 1/8to1/9 1/9to0/9 0/9totop0"/>
    </vehicle>
    <vehicle id="173" depart="21.62">
        <route edges="4/8to4/7 4/7to4/6 4/6to4/5 4/5to3/5 3/5to2/5 2/5to1/5 1/5to0/5 0/5to0/4 0/4to1/4"/>
    </vehicle>
    <vehicle id="174" depart="21.75">
        <route edges="4/0to4/1 4/1to4/2 4/2to4/3 4/3to3/3 3/3to2/3 2/3to1/3 1/3to0/3 0/3toleft3"/>
    </vehicle>
    <vehicle id="175" depart="21.88">
        <route edges="1/6to1/7 1/7to2/7"/>
    </vehicle>
    <vehicle id="176" depart="22.00">
        <route edges="4/4to3/4 3/4to3/5 3/5to3/6 3/6to3/7 3/7to3/8"/>
    </vehicle>
    <vehicle id="177" depart="22.12">
        <route edges="bottom3to3/0 3/0to2/0 2/0tobottom2"/>
    </vehicle>
    <vehicle id="178" depart="22.25">
        <route edges="top3to3/9 3/9to3/8 3/8to2/8 2/8to1/8 1/8to0/8 0/8to0/9 0/9to1/9"/>
    </vehicle>
    <vehicle id="179" depart="22.38">
        <route edges="0/8to0/7 0/7to0/6 0/6to0/5 0/5to0/4 0/4to0/3 0/3to1/3 1/3to2/3 2/3to2/2 2/2to3/2 3/2to4/2"/>
    </vehicle>
    <vehicle id="180" depart="22.50">
        <route edges="2/7to1/7 1/7to1/6 1/6to1/5 1/5to1/4 1/4to0/4 0/4to0/3 0/3to1/3 1/3to1/4"/>
    </vehicle>
    <vehicle id="181" depart="22.62">
        <route edges="0/7to0/6 0/6to0/5 0/5to0/4 0/4to0/3 0/3toleft3"/>
    </vehicle>
    <vehicle id="182" depart="22.75">
        <route edges="1/6to0/6 0/6to0/5 0/5to0/4 0/4to0/3 0/3to0/2 0/2to0/1 0/1to1/1 1/1to2/1 2/1to3/1 3/1to4/1 4/1toright1"/>
    </vehicle>
    <vehicle id="183" depart="22.88">
        <route edges="bottom4to4/0 4/0to4/1 4/1to3/1 3/1to2/1 2/1to2/2 2/2to3/2"/>
    </vehicle>
    <vehicle id="184" depart="23.00">
        <route edges="4/3to3/3 3/3to3/4 3/4to3/5 3/5to2/5 2/5to1/5 1/5to0/5"/>
    </vehicle>
    <vehicle id="185" depart="23.12">
        <route edges="0/3to1/3 1/3to1/4 1/4to1/5 1/5to1/6 1/6to1/7 1/7to2/7 2/7to3/7 3/7to4/7 4/7to4/6"/>
    </vehicle>
    <vehicle id="186" depart="23.25">
        <route edges="1/0to2/0 2/0to2/1 2/1to2/2 2/2to1/2 1/2to1/3 1/3to2/3"/>
    </vehicle>
    <vehicle id="187" depart="23.38">
        <route edges="1/7to0/7 0/7to0/6 0/6to0/5 0/5to0/4 0/4to1/4 1/4to2/4 2/4to3/4 3/4to4/4 4/4to4/3"/>
    </vehicle>
    <vehicle id="188" depart="23.50">
        <route edges="1/8to1/7 1/7to2/7 2/7to2/8 2/8to3/8 3/8to3/7"/>
    </vehicle>
    <vehicle id="189" depart="23.62">
        <route edges="0/1to0/0 0/0to1/0 1/0to1/1 1/1to1/2 1/2to2/2 2/2to2/1"/>
    </vehicle>
    <vehicle id="190" depart="23.75">
        <route edges="3/4to3/5 3/5to2/5 2/5to2/4 2/4to2/3 2/3to2/2 2/2to2/1 2/1to1/1 1/1to0/1 0/1to0/2"/>
    </vehicle>
    <vehicle id="191" depart="23.88">
        <route edges="1/1to2/1 2/1to3/1 3/1to4/1 4/1to4/0 4/0tobottom4"/>
    </vehicle>
    <vehicle id="192" depart="24.00">
        <route edges="2/9to2/8 2/8to3/8 3/8to4/8 4/8to4/7"/>
    </vehicle>
    <vehicle id="193" depart="24.12">
        <route edges="1/9to1/8 1/8to1/7 1/7to1/6 1/6to1/5 1/5to1/4 1/4to1/3 1/3to1/2"/>
    </vehicle>
    <vehicle id="194" depart="24.25">
        <route edges="1/6to2/6 2/6to2/5 2/5to2/4 2/4to2/3 2/3to2/2 2/2to1/2 1/2to1/1 1/1to2/1"/>
    </vehicle>
    <vehicle id="195" depart="24.38">
        <route edges="1/8to0/8 0/8to0/7 0/7to0/6 0/6to0/5 0/5to0/4 0/4to0/3 0/3to1/3 1/3to1/2 1/2to1/1 1/1to1/0 1/0to0/0"/>
    </vehicle>
    <vehicle id="196" depart="24.50">
        <route edges="3/0to3/1 3/1to3/2 3/2to3/3 3/3to4/3"/>
    </vehicle>
    <vehicle id="197" depart="24.62">
        <route edges="2/3to2/2 2/2to2/1 2/1to1/1 1/1to1/0"/>
    </vehicle>
    <vehicle id="198" depart="24.75">
        <route edges="2/5to2/4 2/4to2/3 2/3to1/3 1/3to1/2 1/2to2/2 2/2to2/3"/>
    </vehicle>
    <vehicle id="199" depart="24.88">
        <route edges="1/8to2/8 2/8to2/7 2/7to2/6 2/6to2/5 2/5to3/5 3/5to4/5"/>
    </vehicle>
    <vehicle id="200" depart="25.00">
        <route edges="2/6to3/6 3/6to3/5 3/5to3/4 3/4to3/3 3/3to3/2 3/2to3/1 3/1to2/1 2/1to2/0 2/0tobottom2"/>
    </vehicle>
    <vehicle id="201" depart="25.12">
        <route edges="2/5to2/6 2/6to3/6 3/6to3/5 3/5to3/4 3/4to3/3 3/3to3/2 3/2to4/2 4/2toright2"/>
    </vehicle>
    <vehicle id="202" depart="25.25">
        <route edges="1/8to2/8 2/8to2/7 2/7to2/6 2/6to2/5 2/5to2/4 2/4to2/3 2/3to1/3 1/3to1/2 1/2to1/1 1/1to0/1"/>
    </vehicle>
    <vehicle id="203" depart="25.38">
        <route edges="3/8to3/9 3/9to2/9 2/9to2/8 2/8to1/8 1/8to1/7"/>
    </vehicle>
    <vehicle id="204" depart="25.50">
        <route edges="3/4to2/4 2/4to2/5 2/5to2/6 2/6to2/7 2/7to2/8 2/8to1/8 1/8to0/8 0/8to0/9 0/9to1/9"/>
    </vehicle>