<?xml version="1.0"?>
<!-- generated on 2017-08-04 18:06:33.078295 by $Id: randomTrips.py 23999 2017-04-21 09:04:47Z behrisch $
  options: -n grid.net.xml -o grid-0p125/grid-0p125.trips.xml -r grid-0p125/grid-0p125.rou.xml -e 100 -p 0.125
-->
<routes xmlns:xsi="http://www.w3.org/2001/XMLSchema-instance" xsi:noNamespaceSchemaLocation="http://sumo.dlr.de/xsd/routes_file.xsd">
    <trip id="0" depart="0.00" from="4/9to4/8" to="4/3to3/3"/>
    <trip id="1" depart="0.12" from="3/4to2/4" to="1/9to2/9"/>
    <trip id="2" depart="0.25" from="2/0to3/0" to="4/0toright0"/>
    <trip id="3" depart="0.38" from="3/5to3/4" to="3/3to2/3"/>
    <trip id="4" depart="0.50" from="2/0to3/0" to="3/6to3/5"/>
    <trip id="5" depart="0.62" from="3/5to3/4" to="0/9to0/8"/>
    <trip id="6" depart="0.75" from="1/1to2/1" to="1/6to0/6"/>
    <trip id="7" depart="0.88" from="4/5to4/6" to="3/8to2/8"/>
    <trip id="8" depart="1.00" from="3/2to4/2" to="4/2to3/2"/>
    <trip id="9" depart="1.12" from="3/7to3/6" to="4/7to4/8"/>
    <trip id="10" depart="1.25" from="left5to0/5" to="0/2to0/1"/>
    <trip id="11" depart="1.38" from="0/8to0/7" to="3/7to4/7"/>
    <trip id="12" depart="1.50" from="2/6to1/6" to="3/7to4/7"/>
    <trip id="13" depart="1.62" from="4/0to3/0" to="2/2to3/2"/>
    <trip id="14" depart="1.75" from="top0to0/9" to="3/9to2/9"/>
    <trip id="15" depart="1.88" from="3/4to4/4" to="1/5to0/5"/>
    <trip id="16" depart="2.00" from="3/9to2/9" to="0/4toleft4"/>
    <trip id="17" depart="2.12" from="top4to4/9" to="1/4to2/4"/>
    <trip id="18" depart="2.25" from="2/1to1/1" to="1/8to1/9"/>
    <trip id="19" depart="2.38" from="left7to0/7" to="0/0to0/1"/>
    <trip id="20" depart="2.50" from="2/9to1/9" to="3/6to2/6"/>
    <trip id="21" depart="2.62" from="3/8to3/9" to="4/3to4/4"/>
    <trip id="22" depart="2.75" from="left6to0/6" to="3/4to4/4"/>
    <trip id="23" depart="2.88" from="2/2to2/1" to="2/9to1/9"/>
    <trip id="24" depart="3.00" from="1/4to1/3" to="3/8to4/8"/>
    <trip id="25" depart="3.12" from="2/4to3/4" to="1/1to2/1"/>
    <trip id="26" depart="3.25" from="3/6to3/5" to="1/7to1/6"/>
    <trip id="27" depart="3.38" from="4/6to3/6" to="1/3to0/3"/>
    <trip id="28" depart="3.50" from="top2to2/9" to="0/9to1/9"/>
    <trip id="29" depart="3.62" from="1/4to0/4" to="3/6to3/5"/>
    <trip id="30" depart="3.75" from="4/7to4/8" to="0/1to1/1"/>
    <trip id="31" depart="3.88" from="2/9to2/8" to="1/9to1/8"/>
    <trip id="32" depart="4.00" from="2/4to1/4" to="1/8to0/8"/>
    <trip id="33" depart="4.12" from="1/5to1/6" to="3/5to2/5"/>
    <trip id="34" depart="4.25" from="2/2to2/3" to="3/7to2/7"/>
    <trip id="35" depart="4.38" from="2/6to3/6" to="2/1to1/1"/>
    <trip id="36" depart="4.50" from="3/2to2/2" to="0/0to0/1"/>
    <trip id="37" depart="4.62" from="right9to4/9" to="0/9totop0"/>
    <trip id="38" depart="4.75" from="right9to4/9" to="2/4to2/5"/>
    <trip id="39" depart="4.88" from="0/8to0/9" to="3/1to2/1"/>
    <trip id="40" depart="5.00" from="4/9to3/9" to="3/5to4/5"/>
    <trip id="41" depart="5.12" from="0/3to0/2" to="1/5to2/5"/>
    <trip id="42" depart="5.25" from="0/4to1/4" to="2/6to3/6"/>
    <trip id="43" depart="5.38" from="3/1to3/2" to="3/3to3/2"/>
    <trip id="44" depart="5.50" from="3/3to3/4" to="4/7to4/6"/>
    <trip id="45" depart="5.62" from="2/0to2/1" to="3/6to4/6"/>
    <trip id="46" depart="5.75" from="4/1to4/2" to="2/0to3/0"/>
    <trip id="47" depart="5.88" from="1/1to2/1" to="3/1to3/2"/>
    <trip id="48" depart="6.00" from="1/2to2/2" to="0/2to0/3"/>
    <trip id="49" depart="6.12" from="4/8to3/8" to="0/9totop0"/>
    <trip id="50" depart="6.25" from="3/6to3/5" to="3/6to3/5"/>
    <trip id="51" depart="6.38" from="top4to4/9" to="0/3to0/2"/>
    <trip id="52" depart="6.50" from="0/6to0/5" to="2/0to3/0"/>
    <trip id="53" depart="6.62" from="3/1to3/0" to="3/7to3/8"/>
    <trip id="54" depart="6.75" from="2/8to2/7" to="2/8to1/8"/>
    <trip id="55" depart="6.88" from="2/0to2/1" to="0/3to0/4"/>
    <trip id="56" depart="7.00" from="1/3to1/4" to="2/2to3/2"/>
    <trip id="57" depart="7.12" from="1/1to2/1" to="3/2to4/2"/>
    <trip id="58" depart="7.25" from="1/3to0/3" to="2/9to1/9"/>
    <trip id="59" depart="7.38" from="2/3to1/3" to="4/1toright1"/>
    <trip id="60" depart="7.50" from="0/2to1/2" to="1/1to2/1"/>
    <trip id="61" depart="7.62" from="2/4to3/4" to="2/6to1/6"/>
    <trip id="62" depart="7.75" from="1/9to0/9" to="4/7to4/8"/>
    <trip id="63" depart="7.88" from="0/8to0/9" to="1/5to1/4"/>
    <trip id="64" depart="8.00" from="2/3to3/3" to="0/6to1/6"/>
    <trip id="65" depart="8.12" from="1/9to2/9" to="1/7to1/6"/>
    <trip id="66" depart="8.25" from="4/4to4/5" to="3/1to3/0"/>
    <trip id="67" depart="8.38" from="3/3to2/3" to="0/4toleft4"/>
    <trip id="68" depart="8.50" from="4/6to3/6" to="4/2to4/3"/>
    <trip id="69" depart="8.62" from="2/7to2/6" to="2/8to2/9"/>
    <trip id="70" depart="8.75" from="1/4to1/5" to="0/8toleft8"/>
    <trip id="71" depart="8.88" from="0/8to0/7" to="1/5to1/4"/>
    <trip id="72" depart="9.00" from="4/3to4/4" to="4/5to3/5"/>
    <trip id="73" depart="9.12" from="2/4to2/5" to="2/0to3/0"/>
    <trip id="74" depart="9.25" from="4/0to3/0" to="3/0to3/1"/>
    <trip id="75" depart="9.38" from="3/6to3/5" to="3/3to4/3"/>
    <trip id="76" depart="9.50" from="right7to4/7" to="4/2to4/3"/>
    <trip id="77" depart="9.62" from="4/9to4/8" to="0/3to0/4"/>
    <trip id="78" depart="9.75" from="right7to4/7" to="3/4to3/5"/>
    <trip id="79" depart="9.88" from="1/3to2/3" to="0/9to0/8"/>
    <trip id="80" depart="10.00" from="2/7to2/8" to="2/1to2/0"/>
    <trip id="81" depart="10.12" from="4/7to3/7" to="3/8to4/8"/>
    <trip id="82" depart="10.25" from="3/3to4/3" to="0/3to0/2"/>
    <trip id="83" depart="10.38" from="0/5to0/6" to="3/1to2/1"/>
    <trip id="84" depart="10.50" from="1/5to1/4" to="4/0to4/1"/>
    <trip id="85" depart="10.62" from="1/3to1/2" to="0/2to0/3"/>
    <trip id="86" depart="10.75" from="0/0to1/0" to="2/4to2/3"/>
    <trip id="87" depart="10.88" from="3/8to3/9" to="3/7to2/7"/>
    <trip id="88" depart="11.00" from="1/5to1/4" to="0/5to1/5"/>
    <trip id="89" depart="11.12" from="2/5to2/6" to="2/8to3/8"/>
    <trip id="90" depart="11.25" from="2/3to3/3" to="2/6to2/7"/>
    <trip id="91" depart="11.38" from="0/6to1/6" to="4/2to4/3"/>
    <trip id="92" depart="11.50" from="top0to0/9" to="1/2to2/2"/>
    <trip id="93" depart="11.62" from="1/9to0/9" to="1/0to1/1"/>
    <trip id="94" depart="11.75" from="0/1to0/0" to="4/3to4/4"/>
    <trip id="95" depart="11.88" from="3/1to3/0" to="0/2to0/3"/>
    <trip id="96" depart="12.00" from="4/4to3/4" to="0/4toleft4"/>
    <trip id="97" depart="12.12" from="1/5to1/6" to="2/2to2/3"/>
    <trip id="98" depart="12.25" from="1/7to1/6" to="1/4to2/4"/>
    <trip id="99" depart="12.38" from="right6to4/6" to="0/4toleft4"/>
    <trip id="100" depart="12.50" from="2/1to1/1" to="0/8to1/8"/>
    <trip id="101" depart="12.62" from="right5to4/5" to="1/6to2/6"/>
    <trip id="102" depart="12.75" from="bottom2to2/0" to="1/0to0/0"/>
    <trip id="103" depart="12.88" from="4/8to4/9" to="3/5to2/5"/>
    <trip id="104" depart="13.00" from="1/7to1/8" to="0/6to1/6"/>
    <trip id="105" depart="13.12" from="0/3to0/4" to="3/9totop3"/>
    <trip id="106" depart="13.25" from="4/3to4/2" to="2/4to1/4"/>
    <trip id="107" depart="13.38" from="2/7to2/6" to="2/3to2/4"/>
    <trip id="108" depart="13.50" from="4/0to4/1" to="4/9to3/9"/>
    <trip id="109" depart="13.62" from="2/7to1/7" to="4/9to3/9"/>
    <trip id="110" depart="13.75" from="2/4to1/4" to="3/8to3/9"/>
    <trip id="111" depart="13.88" from="0/0to0/1" to="3/6to3/7"/>
    <trip id="112" depart="14.00" from="2/7to3/7" to="2/5to1/5"/>
    <trip id="113" depart="14.12" from="3/6to2/6" to="1/3to2/3"/>
    <trip id="114" depart="14.25" from="0/6to0/5" to="0/7to0/6"/>
    <trip id="115" depart="14.38" from="0/7to1/7" to="2/3to1/3"/>
    <trip id="116" depart="14.50" from="0/4to0/3" to="1/5to0/5"/>
    <trip id="117" depart="14.62" from="1/2to2/2" to="1/9totop1"/>
    <trip id="118" depart="14.75" from="3/1to2/1" to="4/9to3/9"/>
    <trip id="119" depart="14.88" from="2/3to1/3" to="1/8to0/8"/>
    <trip id="120" depart="15.00" from="4/6to3/6" to="1/8to2/8"/>
    <trip id="121" depart="15.12" from="0/2to0/1" to="4/8to4/9"/>
    <trip id="122" depart="15.25" from="2/7to2/6" to="0/9to0/8"/>
    <trip id="123" depart="15.38" from="0/4to1/4" to="2/5to1/5"/>
    <trip id="124" depart="15.50" from="1/1to1/2" to="1/4to0/4"/>
    <trip id="125" depart="15.62" from="0/0to0/1" to="4/9toright9"/>
    <trip id="126" depart="15.75" from="right0to4/0" to="1/8to0/8"/>
    <trip id="127" depart="15.88" from="4/8to4/7" to="1/9totop1"/>
    <trip id="128" depart="16.00" from="4/3to3/3" to="4/8to4/7"/>
    <trip id="129" depart="16.12" from="4/9to4/8" to="0/5toleft5"/>
    <trip id="130" depart="16.25" from="3/3to3/4" to="3/6to3/5"/>
    <trip id="131" depart="16.38" from="2/6to1/6" to="1/0tobottom1"/>
    <trip id="132" depart="16.50" from="1/0to2/0" to="2/7to2/8"/>
    <trip id="133" depart="16.62" from="3/7to4/7" to="3/3to3/4"/>
    <trip id="134" depart="16.75" from="3/0to2/0" to="1/6to2/6"/>
    <trip id="135" depart="16.88" from="1/9to1/8" to="4/4to3/4"/>
    <trip id="136" depart="17.00" from="1/3to0/3" to="4/3to4/4"/>
    <trip id="137" depart="17.12" from="1/6to1/5" to="4/9toright9"/>
    <trip id="138" depart="17.25" from="4/1to3/1" to="3/1to2/1"/>
    <trip id="139" depart="17.38" from="left9to0/9" to="0/6to0/5"/>
    <trip id="140" depart="17.50" from="right4to4/4" to="4/8to3/8"/>
    <trip id="141" depart="17.62" from="4/1to3/1" to="4/1toright1"/>
    <trip id="142" depart="17.75" from="0/2to0/1" to="4/3toright3"/>
    <trip id="143" depart="17.88" from="1/4to0/4" to="2/6to2/5"/>
    <trip id="144" depart="18.00" from="left0to0/0" to="1/0tobottom1"/>
    <trip id="145" depart="18.12" from="3/1to4/1" to="2/4to2/3"/>
    <trip id="146" depart="18.25" from="top4to4/9" to="1/0to2/0"/>
    <trip id="147" depart="18.38" from="right3to4/3" to="1/3to0/3"/>
    <trip id="148" depart="18.50" from="2/6to2/7" to="2/1to2/2"/>
    <trip id="149" depart="18.62" from="right3to4/3" to="4/8to4/9"/>
    <trip id="150" depart="18.75" from="right9to4/9" to="1/8to1/9"/>
    <trip id="151" depart="18.88" from="0/3to1/3" to="1/9totop1"/>
    <trip id="152" depart="19.00" from="1/4to2/4" to="3/4to3/5"/>
    <trip id="153" depart="19.12" from="top2to2/9" to="3/8to2/8"/>
    <trip id="154" depart="19.25" from="2/2to2/3" to="4/9to4/8"/>
    <trip id="155" depart="19.38" from="left8to0/8" to="2/3to3/3"/>
    <trip id="156" depart="19.50" from="2/6to1/6" to="0/4toleft4"/>
    <trip id="157" depart="19.62" from="4/8to4/9" to="1/8to1/7"/>
    <trip id="158" depart="19.75" from="2/3to3/3" to="0/7toleft7"/>
    <trip id="159" depart="19.88" from="3/3to3/2" to="4/5to4/4"/>
    <trip id="160" depart="20.00" from="2/9to2/8" to="4/4to4/3"/>
    <trip id="161" depart="20.12" from="1/2to0/2" to="1/6to1/7"/>
    <trip id="162" depart="20.25" from="0/1to0/0" to="4/7to3/7"/>
    <trip id="163" depart="20.38" from="3/8to4/8" to="2/0to2/1"/>
    <trip id="164" depart="20.50" from="3/4to2/4" to="4/5to4/4"/>
    <trip id="165" depart="20.62" from="4/7to3/7" to="4/4to3/4"/>
    <trip id="166" depart="20.75" from="1/8to2/8" to="0/8to0/9"/>
    <trip id="167" depart="20.88" from="3/6to2/6" to="3/7to3/6"/>
    <trip id="168" depart="21.00" from="4/4to3/4" to="0/0toleft0"/>
    <trip id="169" depart="21.12" from="0/5to1/5" to="0/4to0/3"/>
    <trip id="170" depart="21.25" from="1/0to0/0" to="0/9to0/8"/>
    <trip id="171" depart="21.38" from="0/6to0/7" to="4/2to4/3"/>
    <trip id="172" depart="21.50" from="1/7to1/8" to="0/9totop0"/>
    <trip id="173" depart="21.62" from="4/8to4/7" to="0/4to1/4"/>
    <trip id="174" depart="21.75" from="4/0to4/1" to="0/3toleft3"/>
    <trip id="175" depart="21.88" from="1/6to1/7" to="1/7to2/7"/>
    <trip id="176" depart="22.00" from="4/4to3/4" to="3/7to3/8"/>
    <trip id="177" depart="22.12" from="bottom3to3/0" to="2/0tobottom2"/>
    <trip id="178" depart="22.25" from="top3to3/9" to="0/9to1/9"/>
    <trip id="179" depart="22.38" from="0/8to0/7" to="3/2to4/2"/>
    <trip id="180" depart="22.50" from="2/7to1/7" to="1/3to1/4"/>
    <trip id="181" depart="22.62" from="0/7to0/6" to="0/3toleft3"/>
    <trip id="182" depart="22.75" from="1/6to0/6" to="4/1toright1"/>
    <trip id="183" depart="22.88" from="bottom4to4/0" to="2/2to3/2"/>
    <trip id="184" depart="23.00" from="4/3to3/3" to="1/5to0/5"/>
    <trip id="185" depart="23.12" from="0/3to1/3" to="4/7to4/6"/>
    <trip id="186" depart="23.25" from="1/0to2/0" to="1/3to2/3"/>
    <trip id="187" depart="23.38" from="1/7to0/7" to="4/4to4/3"/>
    <trip id="188" depart="23.50" from="1/8to1/7" to="3/8to3/7"/>
    <trip id="189" depart="23.62" from="0/1to0/0" to="2/2to2/1"/>
    <trip id="190" depart="23.75" from="3/4to3/5" to="0/1to0/2"/>
    <trip id="191" depart="23.88" from="1/1to2/1" to="4/0tobottom4"/>
    <trip id="192" depart="24.00" from="2/9to2/8" to="4/8to4/7"/>
    <trip id="193" depart="24.12" from="1/9to1/8" to="1/3to1/2"/>
    <trip id="194" depart="24.25" from="1/6to2/6" to="1/1to2/1"/>
    <trip id="195" depart="24.38" from="1/8to0/8" to="1/0to0/0"/>
    <trip id="196" depart="24.50" from="3/0to3/1" to="3/3to4/3"/>
    <trip id="197" depart="24.62" from="2/3to2/2" to="1/1to1/0"/>
    <trip id="198" depart="24.75" from="2/5to2/4" to="2/2to2/3"/>
    <trip id="199" depart="24.88" from="1/8to2/8" to="3/5to4/5"/>
    <trip id="200" depart="25.00" from="2/6to3/6" to="2/0tobottom2"/>
    <trip id="201" depart="25.12" from="2/5to2/6" to="4/2toright2"/>
    <trip id="202" depart="25.25" from="1/8to2/8" to="1/1to0/1"/>
    <trip id="203" depart="25.38" from="3/8to3/9" to="1/8to1/7"/>
    <trip id="204" depart="25.50" from="3/4to2/4" to="0/9to1/9"/>
    <trip id="205" depart="25.62" from="bottom1to1/0" to="0/6to0/7"/>
    <trip id="206" depart="25.75" from="3/5to2/5" to="2/1to2/2"/>
    <trip id="207" depart="25.88" from="2/3to1/3" to="3/9to4/9"/>
    <trip id="208" depart="26.00" from="1/6to1/5" to="3/9to3/8"/>
    <trip id="209" depart="26.12" from="bottom0to0/0" to="4/7to4/8"/>
    <trip id="210" depart="26.25" from="2/7to3/7" to="3/3to3/4"/>
    <trip id="211" depart="26.38" from="1/7to1/8" to="2/8to2/7"/>
    <trip id="212" depart="26.50" from="1/7to1/8" to="4/8to3/8"/>
    <trip id="213" depart="26.62" from="0/2to1/2" to="2/2to2/1"/>
    <trip id="214" depart="26.75" from="1/1to2/1" to="1/9totop1"/>
    <trip id="215" depart="26.88" from="1/1to1/2" to="4/6toright6"/>
    <trip id="216" depart="27.00" from="4/4to4/3" to="3/4to3/3"/>
    <trip id="217" depart="27.12" from="0/6to0/7" to="4/0tobottom4"/>
    <trip id="218" depart="27.25" from="1/3to0/3" to="0/6to0/7"/>
    <trip id="219" depart="27.38" from="0/2to0/3" to="2/2to2/1"/>
    <trip id="220" depart="27.50" from="right2to4/2" to="4/6toright6"/>
    <trip id="221" depart="27.62" from="0/1to0/2" to="0/7to1/7"/>
    <trip id="222" depart="27.75" from="1/4to0/4" to="0/7toleft7"/>
    <trip id="223" depart="27.88" from="0/6to0/7" to="4/1to3/1"/>
    <trip id="224" depart="28.00" from="4/8to4/7" to="4/1to3/1"/>
    <trip id="225" depart="28.12" from="2/5to2/4" to="1/5to1/4"/>
    <trip id="226" depart="28.25" from="top1to1/9" to="0/6to0/5"/>
    <trip id="227" depart="28.38" from="right0to4/0" to="4/2to3/2"/>
    <trip id="228" depart="28.50" from="3/7to4/7" to="2/2to1/2"/>
    <trip id="229" depart="28.62" from="0/2to1/2" to="1/6to0/6"/>
    <trip id="230" depart="28.75" from="0/2to0/1" to="2/6to1/6"/>
    <trip id="231" depart="28.88" from="4/4to4/3" to="1/1to2/1"/>
    <trip id="232" depart="29.00" from="1/3to2/3" to="4/7to4/6"/>
    <trip id="233" depart="29.12" from="3/3to3/2" to="1/0to1/1"/>
    <trip id="234" depart="29.25" from="4/7to3/7" to="1/4to1/3"/>
    <trip id="235" depart="29.38" from="2/0to3/0" to="1/5to2/5"/>
    <trip id="236" depart="29.50" from="3/5to3/4" to="4/1toright1"/>
    <trip id="237" depart="29.62" from="3/9to4/9" to="4/6toright6"/>
    <trip id="238" depart="29.75" from="0/3to0/4" to="2/4to2/3"/>
    <trip id="239" depart="29.88" from="1/1to1/0" to="1/4to1/3"/>
    <trip id="240" depart="30.00" from="right0to4/0" to="4/8to4/7"/>
    <trip id="241" depart="30.12" from="4/0to4/1" to="1/7to0/7"/>
    <trip id="242" depart="30.25" from="4/4to4/3" to="1/4to1/3"/>
    <trip id="243" depart="30.38" from="3/4to3/5" to="0/1toleft1"/>
    <trip id="244" depart="30.50" from="1/8to0/8" to="2/0tobottom2"/>
    <trip id="245" depart="30.62" from="top1to1/9" to="0/6to0/7"/>
    <trip id="246" depart="30.75" from="2/4to1/4" to="4/0to4/1"/>
    <trip id="247" depart="30.88" from="top0to0/9" to="2/2to2/1"/>
    <trip id="248" depart="31.00" from="left7to0/7" to="1/0to2/0"/>
    <trip id="249" depart="31.12" from="bottom4to4/0" to="4/2to3/2"/>
    <trip id="250" depart="31.25" from="4/1to4/2" to="2/3to1/3"/>
    <trip id="251" depart="31.38" from="2/0to1/0" to="4/0to4/1"/>
    <trip id="252" depart="31.50" from="3/9to3/8" to="3/0to3/1"/>
    <trip id="253" depart="31.62" from="3/0to2/0" to="1/6to0/6"/>
    <trip id="254" depart="31.75" from="4/3to4/2" to="3/9totop3"/>
    <trip id="255" depart="31.88" from="right1to4/1" to="1/8to1/7"/>
    <trip id="256" depart="32.00" from="0/3to0/2" to="0/9totop0"/>
    <trip id="257" depart="32.12" from="1/1to1/2" to="3/2to2/2"/>
    <trip id="258" depart="32.25" from="3/0to3/1" to="2/3to2/2"/>
    <trip id="259" depart="32.38" from="3/2to2/2" to="4/4to4/3"/>
    <trip id="260" depart="32.50" from="0/1to1/1" to="4/0to4/1"/>
    <trip id="261" depart="32.62" from="4/4to4/3" to="4/2to4/3"/>
    <trip id="262" depart="32.75" from="2/1to1/1" to="0/3toleft3"/>
    <trip id="263" depart="32.88" from="0/5to0/4" to="4/2to3/2"/>
    <trip id="264" depart="33.00" from="0/4to0/5" to="2/7to1/7"/>
    <trip id="265" depart="33.12" from="0/5to1/5" to="4/3to3/3"/>
    <trip id="266" depart="33.25" from="3/2to4/2" to="3/3to4/3"/>
    <trip id="267" depart="33.38" from="bottom3to3/0" to="3/4to3/3"/>
    <trip id="268" depart="33.50" from="4/3to4/2" to="1/4to0/4"/>
    <trip id="269" depart="33.62" from="1/8to1/9" to="0/1toleft1"/>
    <trip id="270" depart="33.75" from="1/9to0/9" to="2/8to2/9"/>
    <trip id="271" depart="33.88" from="right7to4/7" to="0/9toleft9"/>
    <trip id="272" depart="34.00" from="3/5to4/5" to="3/0to2/0"/>
    <trip id="273" depart="34.12" from="3/7to3/6" to="0/2to1/2"/>
    <trip id="274" depart="34.25" from="3/7to4/7" to="2/8to2/9"/>
    <trip id="275" depart="34.38" from="4/2to3/2" to="0/5to1/5"/>
    <trip id="276" depart="34.50" from="right6to4/6" to="4/2to4/1"/>
    <trip id="277" depart="34.62" from="2/8to2/7" to="1/5to1/4"/>
    <trip id="278" depart="34.75" from="0/5to0/4" to="3/7to3/8"/>
    <trip id="279" depart="34.88" from="3/8to3/7" to="4/3to3/3"/>
    <trip id="280" depart="35.00" from="3/4to3/3" to="2/3to3/3"/>
    <trip id="281" depart="35.12" from="0/8to0/7" to="1/0to1/1"/>
    <trip id="282" depart="35.25" from="1/6to0/6" to="2/8to2/7"/>
    <trip id="283" depart="35.38" from="2/1to2/0" to="3/3to3/2"/>
    <trip id="284" depart="35.50" from="0/3to0/2" to="3/5to2/5"/>
    <trip id="285" depart="35.62" from="0/2to0/1" to="0/0toleft0"/>
    <trip id="286" depart="35.75" from="1/2to2/2" to="3/5to2/5"/>
    <trip id="287" depart="35.88" from="3/5to3/4" to="3/7to3/8"/>
    <trip id="288" depart="36.00" from="3/4to3/5" to="0/1to0/0"/>
    <trip id="289" depart="36.12" from="left7to0/7" to="3/4to3/5"/>
    <trip id="290" depart="36.25" from="right1to4/1" to="4/0toright0"/>
    <trip id="291" depart="36.38" from="bottom1to1/0" to="0/8to0/9"/>
    <trip id="292" depart="36.50" from="1/9to0/9" to="0/8to0/7"/>
    <trip id="293" depart="36.62" from="4/3to3/3" to="0/5to1/5"/>
    <trip id="294" depart="36.75" from="0/3to1/3" to="4/2to3/2"/>
    <trip id="295" depart="36.88" from="4/6to4/5" to="2/5to1/5"/>
    <trip id="296" depart="37.00" from="1/4to1/5" to="4/6toright6"/>
    <trip id="297" depart="37.12" from="3/2to2/2" to="2/5to2/6"/>
    <trip id="298" depart="37.25" from="3/6to2/6" to="2/1to2/0"/>
    <trip id="299" depart="37.38" from="right9to4/9" to="4/0toright0"/>
    <trip id="300" depart="37.50" from="4/5to4/4" to="4/4to4/5"/>
    <trip id="301" depart="37.62" from="right8to4/8" to="3/3to2/3"/>
    <trip id="302" depart="37.75" from="3/3to3/4" to="1/1to2/1"/>
    <trip id="303" depart="37.88" from="1/6to1/7" to="2/6to1/6"/>
    <trip id="304" depart="38.00" from="4/9to3/9" to="0/9to1/9"/>
    <trip id="305" depart="38.12" from="2/4to2/3" to="1/1to1/2"/>
    <trip id="306" depart="38.25" from="right8to4/8" to="3/7to4/7"/>
    <trip id="307" depart="38.38" from="1/6to1/5" to="3/5to3/6"/>
    <trip id="308" depart="38.50" from="4/7to4/8" to="1/3to1/2"/>
    <trip id="309" depart="38.62" from="2/5to2/4" to="0/3to0/2"/>
    <trip id="310" depart="38.75" from="2/2to2/3" to="0/8toleft8"/>
    <trip id="311" depart="38.88" from="4/2to4/3" to="2/2to2/1"/>
    <trip id="312" depart="39.00" from="4/9to3/9" to="3/0tobottom3"/>
    <trip id="313" depart="39.12" from="2/5to2/6" to="2/4to2/3"/>
    <trip id="314" depart="39.25" from="1/3to1/4" to="0/6to0/5"/>
    <trip id="315" depart="39.38" from="0/7to1/7" to="2/4to1/4"/>
    <trip id="316" depart="39.50" from="left8to0/8" to="2/4to2/5"/>
    <trip id="317" depart="39.62" from="0/8to0/9" to="4/4to3/4"/>
    <trip id="318" depart="39.75" from="left4to0/4" to="1/6to1/7"/>
    <trip id="319" depart="39.88" from="1/3to1/4" to="4/0to3/0"/>
    <trip id="320" depart="40.00" from="4/2to4/1" to="1/2to2/2"/>
    <trip id="321" depart="40.12" from="2/2to2/3" to="0/1toleft1"/>
    <trip id="322" depart="40.25" from="top2to2/9" to="0/3toleft3"/>
    <trip id="323" depart="40.38" from="1/7to0/7" to="4/6toright6"/>
    <trip id="324" depart="40.50" from="4/2to3/2" to="4/2to3/2"/>
    <trip id="325" depart="40.62" from="1/5to0/5" to="3/5to4/5"/>
    <trip id="326" depart="40.75" from="4/6to4/5" to="0/4to0/3"/>
    <trip id="327" depart="40.88" from="1/7to0/7" to="3/9totop3"/>
    <trip id="328" depart="41.00" from="right1to4/1" to="3/1to3/2"/>
    <trip id="329" depart="41.12" from="3/6to3/7" to="2/5to2/6"/>
    <trip id="330" depart="41.25" from="4/7to4/6" to="3/0tobottom3"/>
    <trip id="331" depart="41.38" from="right4to4/4" to="3/9to4/9"/>
    <trip id="332" depart="41.50" from="0/4to1/4" to="0/5to0/6"/>
    <trip id="333" depart="41.62" from="top0to0/9" to="4/1toright1"/>
    <trip id="334" depart="41.75" from="1/3to1/4" to="1/3to0/3"/>
    <trip id="335" depart="41.88" from="1/5to1/4" to="0/2to0/3"/>
    <trip id="336" depart="42.00" from="3/5to2/5" to="3/5to2/5"/>
    <trip id="337" depart="42.12" from="4/6to4/5" to="1/5to0/5"/>
    <trip id="338" depart="42.25" from="4/7to4/6" to="4/4to3/4"/>
    <trip id="339" depart="42.38" from="3/5to4/5" to="2/8to2/7"/>
    <trip id="340" depart="42.50" from="right8to4/8" to="2/5to2/4"/>
    <trip id="341" depart="42.62" from="4/5to3/5" to="2/4to2/3"/>
    <trip id="342" depart="42.75" from="4/6to3/6" to="1/5to2/5"/>
    <trip id="343" depart="42.88" from="left5to0/5" to="3/6to3/5"/>
    <trip id="344" depart="43.00" from="2/4to3/4" to="2/6to3/6"/>
    <trip id="345" depart="43.12" from="3/1to2/1" to="4/4toright4"/>
    <trip id="346" depart="43.25" from="left5to0/5" to="2/1to2/0"/>
    <trip id="347" depart="43.38" from="4/1to4/2" to="0/0tobottom0"/>
    <trip id="348" depart="43.50" from="bottom3to3/0" to="4/7to3/7"/>
    <trip id="349" depart="43.62" from="0/7to1/7" to="3/9to2/9"/>
    <trip id="350" depart="43.75" from="1/0to0/0" to="3/1to4/1"/>
    <trip id="351" depart="43.88" from="2/8to1/8" to="0/9to0/8"/>
    <trip id="352" depart="44.00" from="1/5to1/6" to="4/0toright0"/>
    <trip id="353" depart="44.12" from="1/7to1/6" to="0/9to0/8"/>
    <trip id="354" depart="44.25" from="left2to0/2" to="2/6to1/6"/>
    <trip id="355" depart="44.38" from="left4to0/4" to="1/1to0/1"/>
    <trip id="356" depart="44.50" from="bottom3to3/0" to="4/2to4/1"/>
    <trip id="357" depart="44.62" from="3/7to4/7" to="0/8toleft8"/>
    <trip id="358" depart="44.75" from="4/7to4/8" to="3/5to3/6"/>
    <trip id="359" depart="44.88" from="2/5to2/6" to="4/9totop4"/>
    <trip id="360" depart="45.00" from="0/4to0/5" to="0/8toleft8"/>
    <trip id="361" depart="45.12" from="2/1to2/2" to="2/7to3/7"/>
    <trip id="362" depart="45.25" from="0/1to1/1" to="0/0tobottom0"/>
    <trip id="363" depart="45.38" from="0/8to0/7" to="2/7to2/8"/>
    <trip id="364" depart="45.50" from="3/5to4/5" to="1/6to1/5"/>
    <trip id="365" depart="45.62" from="1/4to0/4" to="0/1toleft1"/>
    <trip id="366" depart="45.75" from="1/8to0/8" to="3/3to4/3"/>
    <trip id="367" depart="45.88" from="4/6to4/7" to="0/3toleft3"/>
    <trip id="368" depart="46.00" from="3/1to3/2" to="1/6to2/6"/>
    <trip id="369" depart="46.12" from="3/1to2/1" to="4/3to4/4"/>
    <trip id="370" depart="46.25" from="2/6to1/6" to="0/9to0/8"/>
    <trip id="371" depart="46.38" from="3/6to4/6" to="1/2to1/3"/>
    <trip id="372" depart="46.50" from="3/2to2/2" to="0/8to1/8"/>
    <trip id="373" depart="46.62" from="1/2to2/2" to="0/7to1/7"/>
    <trip id="374" depart="46.75" from="3/7to2/7" to="4/5to4/6"/>
    <trip id="375" depart="46.88" from="3/2to3/1" to="4/5to3/5"/>
    <trip id="376" depart="47.00" from="1/6to1/7" to="3/3to3/4"/>
    <trip id="377" depart="47.12" from="1/8to1/7" to="3/3to2/3"/>
    <trip id="378" depart="47.25" from="1/4to1/5" to="0/7to0/6"/>
    <trip id="379" depart="47.38" from="right8to4/8" to="2/3to1/3"/>
    <trip id="380" depart="47.50" from="3/9to2/9" to="0/4to1/4"/>
    <trip id="381" depart="47.62" from="2/1to2/0" to="4/3to4/4"/>
    <trip id="382" depart="47.75" from="4/7to4/8" to="3/5to4/5"/>
    <trip id="383" depart="47.88" from="right6to4/6" to="0/2to0/3"/>
    <trip id="384" depart="48.00" from="0/5to1/5" to="2/6to2/5"/>
    <trip id="385" depart="48.12" from="1/8to2/8" to="2/6to2/7"/>
    <trip id="386" depart="48.25" from="2/7to2/8" to="3/9totop3"/>
    <trip id="387" depart="48.38" from="0/8to0/7" to="4/4to4/5"/>
    <trip id="388" depart="48.50" from="3/2to2/2" to="4/1to4/0"/>
    <trip id="389" depart="48.62" from="1/0to1/1" to="4/0to3/0"/>
    <trip id="390" depart="48.75" from="2/9to2/8" to="3/5to3/4"/>
    <trip id="391" depart="48.88" from="3/3to4/3" to="1/3to1/4"/>
    <trip id="392" depart="49.00" from="2/1to3/1" to="1/5to2/5"/>
    <trip id="393" depart="49.12" from="4/5to3/5" to="3/4to2/4"/>
    <trip id="394" depart="49.25" from="2/3to2/4" to="1/3to0/3"/>
    <trip id="395" depart="49.38" from="4/3to3/3" to="4/5to3/5"/>
    <trip id="396" depart="49.50" from="0/3to0/2" to="1/4to0/4"/>
    <trip id="397" depart="49.62" from="3/1to3/2" to="4/2to4/3"/>
    <trip id="398" depart="49.75" from="2/7to1/7" to="2/6to1/6"/>
    <trip id="399" depart="49.88" from="2/8to2/7" to="4/6to3/6"/>
    <trip id="400" depart="50.00" from="3/9to3/8" to="0/1to0/2"/>
    <trip id="401" depart="50.12" from="2/2to1/2" to="2/6to2/7"/>
    <trip id="402" depart="50.25" from="4/2to4/1" to="1/2to2/2"/>
    <trip id="403" depart="50.38" from="left3to0/3" to="4/1to4/0"/>
    <trip id="404" depart="50.50" from="1/3to1/2" to="3/5to3/4"/>
    <trip id="405" depart="50.62" from="4/9to3/9" to="4/6to4/5"/>
    <trip id="406" depart="50.75" from="3/5to4/5" to="2/2to1/2"/>
    <trip id="407" depart="50.88" from="1/1to0/1" to="2/4to3/4"/>
    <trip id="408" depart="51.00" from="1/3to1/4" to="1/5to0/5"/>
    <trip id="409" depart="51.12" from="0/5to0/4" to="2/8to2/7"/>
    <trip id="410" depart="51.25" from="left6to0/6" to="0/4toleft4"/>
    <trip id="411" depart="51.38" from="0/2to0/1" to="2/1to3/1"/>
    <trip id="412" depart="51.50" from="4/4to4/5" to="2/1to2/0"/>
    <trip id="413" depart="51.62" from="4/6to3/6" to="0/1to0/2"/>
    <trip id="414" depart="51.75" from="2/3to2/2" to="4/0to3/0"/>
    <trip id="415" depart="51.88" from="3/8to2/8" to="0/9to1/9"/>
    <trip id="416" depart="52.00" from="bottom2to2/0" to="3/4to3/3"/>
    <trip id="417" depart="52.12" from="0/3to0/2" to="1/3to1/2"/>
    <trip id="418" depart="52.25" from="0/1to1/1" to="2/7to2/8"/>
    <trip id="419" depart="52.38" from="0/8to0/9" to="4/5to4/4"/>
    <trip id="420" depart="52.50" from="0/2to0/3" to="2/2to3/2"/>
    <trip id="421" depart="52.62" from="0/3to0/2" to="2/0to1/0"/>
    <trip id="422" depart="52.75" from="3/1to3/2" to="1/8to1/7"/>
    <trip id="423" depart="52.88" from="left7to0/7" to="2/5to3/5"/>
    <trip id="424" depart="53.00" from="2/4to2/3" to="1/4to2/4"/>
    <trip id="425" depart="53.12" from="3/7to3/6" to="2/3to2/4"/>
    <trip id="426" depart="53.25" from="right6to4/6" to="3/8to4/8"/>
    <trip id="427" depart="53.38" from="1/9to0/9" to="2/9to2/8"/>
    <trip id="428" depart="53.50" from="0/8to0/7" to="4/1to4/2"/>
    <trip id="429" depart="53.62" from="3/0to2/0" to="3/6to3/5"/>
    <trip id="430" depart="53.75" from="4/3to4/4" to="4/4to4/3"/>
    <trip id="431" depart="53.88" from="0/1to0/2" to="2/8to2/7"/>
    <trip id="432" depart="54.00" from="0/2to1/2" to="3/2to3/1"/>
    <trip id="433" depart="54.12" from="right9to4/9" to="1/9to0/9"/>
    <trip id="434" depart="54.25" from="2/5to2/4" to="4/9totop4"/>
    <trip id="435" depart="54.38" from="1/2to0/2" to="1/4to2/4"/>
    <trip id="436" depart="54.50" from="3/5to4/5" to="2/8to2/7"/>
    <trip id="437" depart="54.62" from="2/5to2/4" to="3/9to2/9"/>
    <trip id="438" depart="54.75" from="4/3to4/2" to="2/4to2/3"/>
    <trip id="439" depart="54.88" from="2/6to1/6" to="1/8to1/9"/>
    <trip id="440" depart="55.00" from="1/2to0/2" to="4/5to3/5"/>
    <trip id="441" depart="55.12" from="3/0to2/0" to="0/4to0/5"/>
    <trip id="442" depart="55.25" from="2/5to2/4" to="3/9totop3"/>
    <trip id="443" depart="55.38" from="3/1to4/1" to="4/5toright5"/>
    <trip id="444" depart="55.50" from="left2to0/2" to="0/5to1/5"/>
    <trip id="445" depart="55.62" from="0/7to0/8" to="4/0to3/0"/>