<?xml version="1.0" encoding="UTF-8"?>

<!-- generated on Tue Jun 28 10:29:17 2016 by SUMO netgenerate Version 0.25.0
<?xml version="1.0" encoding="UTF-8"?>

<configuration xmlns:xsi="http://www.w3.org/2001/XMLSchema-instance" xsi:noNamespaceSchemaLocation="http://sumo.dlr.de/xsd/netgenerateConfiguration.xsd">

    <grid_network>
        <grid value="true"/>
        <grid.x-number value="5"/>
        <grid.y-number value="10"/>
        <grid.x-length value="275"/>
        <grid.y-length value="80"/>
        <grid.attach-length value="20"/>
    </grid_network>

    <output>
        <output-file value="manhattan.net.xml"/>
    </output>

    <tls_building>
        <tls.unset value=""/>
    </tls_building>

    <processing>
        <no-turnarounds value="true"/>
    </processing>

    <building_defaults>
        <default.lanenumber value="3"/>
        <default-junction-type value="right_before_left"/>
    </building_defaults>

    <random_number>
        <seed value="0"/>
    </random_number>

</configuration>
-->

<net version="0.25" xmlns:xsi="http://www.w3.org/2001/XMLSchema-instance" xsi:noNamespaceSchemaLocation="http://sumo.dlr.de/xsd/net_file.xsd">

    <location netOffset="0.00,0.00" convBoundary="0.00,0.00,1140.00,760.00" origBoundary="0.00,0.00,1140.00,760.00" projParameter="!"/>

    <edge id=":0/0_0" function="internal">
        <lane id=":0/0_0_0" index="0" speed="13.90" length="5.00" shape="11.75,31.35 11.56,29.99 10.98,29.02 10.01,28.44 8.65,28.25"/>
    </edge>
    <edge id=":0/0_1" function="internal">
        <lane id=":0/0_1_0" index="0" speed="13.90" length="23.02" shape="11.75,31.35 12.27,24.58 13.40,20.00 14.53,15.42 15.05,8.65"/>
        <lane id=":0/0_1_1" index="1" speed="13.90" length="23.02" shape="15.05,31.35 15.57,24.58 16.70,20.00 17.83,15.42 18.35,8.65"/>
    </edge>
    <edge id=":0/0_3" function="internal">
        <lane id=":0/0_3_0" index="0" speed="13.90" length="20.97" shape="18.35,31.35 19.16,25.66 21.60,21.60 25.66,19.16 31.35,18.35"/>
    </edge>
    <edge id=":0/0_4" function="internal">
        <lane id=":0/0_4_0" index="0" speed="13.90" length="5.00" shape="31.35,28.25 29.99,28.44 29.03,29.02 28.44,29.99 28.25,31.35"/>
    </edge>
    <edge id=":0/0_5" function="internal">
        <lane id=":0/0_5_0" index="0" speed="13.90" length="23.02" shape="31.35,28.25 24.58,27.73 20.00,26.60 15.42,25.47 8.65,24.95"/>
        <lane id=":0/0_5_1" index="1" speed="13.90" length="23.02" shape="31.35,24.95 24.58,24.43 20.00,23.30 15.42,22.17 8.65,21.65"/>
    </edge>
    <edge id=":0/0_7" function="internal">
        <lane id=":0/0_7_0" index="0" speed="13.90" length="20.97" shape="31.35,21.65 25.66,20.84 21.60,18.40 19.16,14.34 18.35,8.65"/>
    </edge>
    <edge id=":0/0_8" function="internal">
        <lane id=":0/0_8_0" index="0" speed="13.90" length="5.00" shape="28.25,8.65 28.44,10.01 29.02,10.97 29.99,11.56 31.35,11.75"/>
    </edge>
    <edge id=":0/0_9" function="internal">
        <lane id=":0/0_9_0" index="0" speed="13.90" length="23.02" shape="28.25,8.65 27.73,15.42 26.60,20.00 25.47,24.58 24.95,31.35"/>
        <lane id=":0/0_9_1" index="1" speed="13.90" length="23.02" shape="24.95,8.65 24.43,15.42 23.30,20.00 22.17,24.58 21.65,31.35"/>
    </edge>
    <edge id=":0/0_11" function="internal">
        <lane id=":0/0_11_0" index="0" speed="13.90" length="20.97" shape="21.65,8.65 20.84,14.34 18.40,18.40 14.34,20.84 8.65,21.65"/>
    </edge>
    <edge id=":0/0_12" function="internal">
        <lane id=":0/0_12_0" index="0" speed="13.90" length="5.00" shape="8.65,11.75 10.01,11.56 10.98,10.98 11.56,10.01 11.75,8.65"/>
    </edge>
    <edge id=":0/0_13" function="internal">
        <lane id=":0/0_13_0" index="0" speed="13.90" length="23.02" shape="8.65,11.75 15.42,12.27 20.00,13.40 24.58,14.53 31.35,15.05"/>
        <lane id=":0/0_13_1" index="1" speed="13.90" length="23.02" shape="8.65,15.05 15.42,15.57 20.00,16.70 24.58,17.83 31.35,18.35"/>
    </edge>
    <edge id=":0/0_15" function="internal">
        <lane id=":0/0_15_0" index="0" speed="13.90" length="20.97" shape="8.65,18.35 14.34,19.16 18.40,21.60 20.84,25.66 21.65,31.35"/>
    </edge>
    <edge id=":0/1_0" function="internal">
        <lane id=":0/1_0_0" index="0" speed="13.90" length="5.00" shape="11.75,111.35 11.56,109.99 10.98,109.03 10.01,108.44 8.65,108.25"/>
    </edge>
    <edge id=":0/1_1" function="internal">
        <lane id=":0/1_1_0" index="0" speed="13.90" length="23.02" shape="11.75,111.35 12.27,104.58 13.40,100.00 14.53,95.42 15.05,88.65"/>
        <lane id=":0/1_1_1" index="1" speed="13.90" length="23.02" shape="15.05,111.35 15.57,104.58 16.70,100.00 17.83,95.42 18.35,88.65"/>
    </edge>
    <edge id=":0/1_3" function="internal">
        <lane id=":0/1_3_0" index="0" speed="13.90" length="20.97" shape="18.35,111.35 19.16,105.66 21.60,101.60 25.66,99.16 31.35,98.35"/>
    </edge>
    <edge id=":0/1_4" function="internal">
        <lane id=":0/1_4_0" index="0" speed="13.90" length="5.00" shape="31.35,108.25 29.99,108.44 29.02,109.03 28.44,109.99 28.25,111.35"/>
    </edge>
    <edge id=":0/1_5" function="internal">
        <lane id=":0/1_5_0" index="0" speed="13.90" length="23.02" shape="31.35,108.25 24.58,107.73 20.00,106.60 15.42,105.47 8.65,104.95"/>
        <lane id=":0/1_5_1" index="1" speed="13.90" length="23.02" shape="31.35,104.95 24.58,104.43 20.00,103.30 15.42,102.17 8.65,101.65"/>
    </edge>
    <edge id=":0/1_7" function="internal">
        <lane id=":0/1_7_0" index="0" speed="13.90" length="20.97" shape="31.35,101.65 25.66,100.84 21.60,98.40 19.16,94.34 18.35,88.65"/>
    </edge>
    <edge id=":0/1_8" function="internal">
        <lane id=":0/1_8_0" index="0" speed="13.90" length="5.00" shape="28.25,88.65 28.44,90.01 29.02,90.97 29.99,91.56 31.35,91.75"/>
    </edge>
    <edge id=":0/1_9" function="internal">
        <lane id=":0/1_9_0" index="0" speed="13.90" length="23.02" shape="28.25,88.65 27.73,95.42 26.60,100.00 25.47,104.58 24.95,111.35"/>
        <lane id=":0/1_9_1" index="1" speed="13.90" length="23.02" shape="24.95,88.65 24.43,95.42 23.30,100.00 22.17,104.58 21.65,111.35"/>
    </edge>
    <edge id=":0/1_11" function="internal">
        <lane id=":0/1_11_0" index="0" speed="13.90" length="20.97" shape="21.65,88.65 20.84,94.34 18.40,98.40 14.34,100.84 8.65,101.65"/>
    </edge>
    <edge id=":0/1_12" function="internal">
        <lane id=":0/1_12_0" index="0" speed="13.90" length="5.00" shape="8.65,91.75 10.01,91.56 10.97,90.97 11.56,90.01 11.75,88.65"/>
    </edge>
    <edge id=":0/1_13" function="internal">
        <lane id=":0/1_13_0" index="0" speed="13.90" length="23.02" shape="8.65,91.75 15.42,92.27 20.00,93.40 24.58,94.53 31.35,95.05"/>
        <lane id=":0/1_13_1" index="1" speed="13.90" length="23.02" shape="8.65,95.05 15.42,95.57 20.00,96.70 24.58,97.83 31.35,98.35"/>
    </edge>
    <edge id=":0/1_15" function="internal">
        <lane id=":0/1_15_0" index="0" speed="13.90" length="20.97" shape="8.65,98.35 14.34,99.16 18.40,101.60 20.84,105.66 21.65,111.35"/>
    </edge>
    <edge id=":0/2_0" function="internal">
        <lane id=":0/2_0_0" index="0" speed="13.90" length="5.00" shape="11.75,191.35 11.56,189.99 10.98,189.03 10.01,188.44 8.65,188.25"/>
    </edge>
    <edge id=":0/2_1" function="internal">
        <lane id=":0/2_1_0" index="0" speed="13.90" length="23.02" shape="11.75,191.35 12.27,184.58 13.40,180.00 14.53,175.42 15.05,168.65"/>
        <lane id=":0/2_1_1" index="1" speed="13.90" length="23.02" shape="15.05,191.35 15.57,184.58 16.70,180.00 17.83,175.42 18.35,168.65"/>
    </edge>
    <edge id=":0/2_3" function="internal">
        <lane id=":0/2_3_0" index="0" speed="13.90" length="20.97" shape="18.35,191.35 19.16,185.66 21.60,181.60 25.66,179.16 31.35,178.35"/>
    </edge>
    <edge id=":0/2_4" function="internal">
        <lane id=":0/2_4_0" index="0" speed="13.90" length="5.00" shape="31.35,188.25 29.99,188.44 29.03,189.03 28.44,189.99 28.25,191.35"/>
    </edge>
    <edge id=":0/2_5" function="internal">
        <lane id=":0/2_5_0" index="0" speed="13.90" length="23.02" shape="31.35,188.25 24.58,187.73 20.00,186.60 15.42,185.47 8.65,184.95"/>
        <lane id=":0/2_5_1" index="1" speed="13.90" length="23.02" shape="31.35,184.95 24.58,184.43 20.00,183.30 15.42,182.17 8.65,181.65"/>
    </edge>
    <edge id=":0/2_7" function="internal">
        <lane id=":0/2_7_0" index="0" speed="13.90" length="20.97" shape="31.35,181.65 25.66,180.84 21.60,178.40 19.16,174.34 18.35,168.65"/>
    </edge>
    <edge id=":0/2_8" function="internal">
        <lane id=":0/2_8_0" index="0" speed="13.90" length="5.00" shape="28.25,168.65 28.44,170.01 29.02,170.97 29.99,171.56 31.35,171.75"/>
    </edge>
    <edge id=":0/2_9" function="internal">
        <lane id=":0/2_9_0" index="0" speed="13.90" length="23.02" shape="28.25,168.65 27.73,175.42 26.60,180.00 25.47,184.58 24.95,191.35"/>
        <lane id=":0/2_9_1" index="1" speed="13.90" length="23.02" shape="24.95,168.65 24.43,175.42 23.30,180.00 22.17,184.58 21.65,191.35"/>
    </edge>
    <edge id=":0/2_11" function="internal">
        <lane id=":0/2_11_0" index="0" speed="13.90" length="20.97" shape="21.65,168.65 20.84,174.34 18.40,178.40 14.34,180.84 8.65,181.65"/>
    </edge>
    <edge id=":0/2_12" function="internal">
        <lane id=":0/2_12_0" index="0" speed="13.90" length="5.00" shape="8.65,171.75 10.01,171.56 10.98,170.97 11.56,170.01 11.75,168.65"/>
    </edge>
    <edge id=":0/2_13" function="internal">
        <lane id=":0/2_13_0" index="0" speed="13.90" length="23.02" shape="8.65,171.75 15.42,172.27 20.00,173.40 24.58,174.53 31.35,175.05"/>
        <lane id=":0/2_13_1" index="1" speed="13.90" length="23.02" shape="8.65,175.05 15.42,175.57 20.00,176.70 24.58,177.83 31.35,178.35"/>
    </edge>
    <edge id=":0/2_15" function="internal">
        <lane id=":0/2_15_0" index="0" speed="13.90" length="20.97" shape="8.65,178.35 14.34,179.16 18.40,181.60 20.84,185.66 21.65,191.35"/>
    </edge>
    <edge id=":0/3_0" function="internal">
        <lane id=":0/3_0_0" index="0" speed="13.90" length="5.00" shape="11.75,271.35 11.56,269.99 10.98,269.02 10.01,268.44 8.65,268.25"/>
    </edge>
    <edge id=":0/3_1" function="internal">
        <lane id=":0/3_1_0" index="0" speed="13.90" length="23.02" shape="11.75,271.35 12.27,264.58 13.40,260.00 14.53,255.42 15.05,248.65"/>
        <lane id=":0/3_1_1" index="1" speed="13.90" length="23.02" shape="15.05,271.35 15.57,264.58 16.70,260.00 17.83,255.42 18.35,248.65"/>
    </edge>
    <edge id=":0/3_3" function="internal">
        <lane id=":0/3_3_0" index="0" speed="13.90" length="20.97" shape="18.35,271.35 19.16,265.66 21.60,261.60 25.66,259.16 31.35,258.35"/>
    </edge>
    <edge id=":0/3_4" function="internal">
        <lane id=":0/3_4_0" index="0" speed="13.90" length="5.00" shape="31.35,268.25 29.99,268.44 29.03,269.02 28.44,269.99 28.25,271.35"/>
    </edge>
    <edge id=":0/3_5" function="internal">
        <lane id=":0/3_5_0" index="0" speed="13.90" length="23.02" shape="31.35,268.25 24.58,267.73 20.00,266.60 15.42,265.47 8.65,264.95"/>
        <lane id=":0/3_5_1" index="1" speed="13.90" length="23.02" shape="31.35,264.95 24.58,264.43 20.00,263.30 15.42,262.17 8.65,261.65"/>
    </edge>
    <edge id=":0/3_7" function="internal">
        <lane id=":0/3_7_0" index="0" speed="13.90" length="20.97" shape="31.35,261.65 25.66,260.84 21.60,258.40 19.16,254.34 18.35,248.65"/>
    </edge>
    <edge id=":0/3_8" function="internal">
        <lane id=":0/3_8_0" index="0" speed="13.90" length="5.00" shape="28.25,248.65 28.44,250.01 29.02,250.97 29.99,251.56 31.35,251.75"/>
    </edge>
    <edge id=":0/3_9" function="internal">
        <lane id=":0/3_9_0" index="0" speed="13.90" length="23.02" shape="28.25,248.65 27.73,255.42 26.60,260.00 25.47,264.58 24.95,271.35"/>
        <lane id=":0/3_9_1" index="1" speed="13.90" length="23.02" shape="24.95,248.65 24.43,255.42 23.30,260.00 22.17,264.58 21.65,271.35"/>
    </edge>
    <edge id=":0/3_11" function="internal">
        <lane id=":0/3_11_0" index="0" speed="13.90" length="20.97" shape="21.65,248.65 20.84,254.34 18.40,258.40 14.34,260.84 8.65,261.65"/>
    </edge>
    <edge id=":0/3_12" function="internal">
        <lane id=":0/3_12_0" index="0" speed="13.90" length="5.00" shape="8.65,251.75 10.01,251.56 10.98,250.97 11.56,250.01 11.75,248.65"/>
    </edge>
    <edge id=":0/3_13" function="internal">
        <lane id=":0/3_13_0" index="0" speed="13.90" length="23.02" shape="8.65,251.75 15.42,252.27 20.00,253.40 24.58,254.53 31.35,255.05"/>
        <lane id=":0/3_13_1" index="1" speed="13.90" length="23.02" shape="8.65,255.05 15.42,255.57 20.00,256.70 24.58,257.83 31.35,258.35"/>
    </edge>
    <edge id=":0/3_15" function="internal">
        <lane id=":0/3_15_0" index="0" speed="13.90" length="20.97" shape="8.65,258.35 14.34,259.16 18.40,261.60 20.84,265.66 21.65,271.35"/>
    </edge>
    <edge id=":0/4_0" function="internal">
        <lane id=":0/4_0_0" index="0" speed="13.90" length="5.00" shape="11.75,351.35 11.56,349.99 10.98,349.02 10.01,348.44 8.65,348.25"/>
    </edge>
    <edge id=":0/4_1" function="internal">
        <lane id=":0/4_1_0" index="0" speed="13.90" length="23.02" shape="11.75,351.35 12.27,344.58 13.40,340.00 14.53,335.42 15.05,328.65"/>
        <lane id=":0/4_1_1" index="1" speed="13.90" length="23.02" shape="15.05,351.35 15.57,344.58 16.70,340.00 17.83,335.42 18.35,328.65"/>
    </edge>
    <edge id=":0/4_3" function="internal">
        <lane id=":0/4_3_0" index="0" speed="13.90" length="20.97" shape="18.35,351.35 19.16,345.66 21.60,341.60 25.66,339.16 31.35,338.35"/>
    </edge>
    <edge id=":0/4_4" function="internal">
        <lane id=":0/4_4_0" index="0" speed="13.90" length="5.00" shape="31.35,348.25 29.99,348.44 29.03,349.02 28.44,349.99 28.25,351.35"/>
    </edge>
    <edge id=":0/4_5" function="internal">
        <lane id=":0/4_5_0" index="0" speed="13.90" length="23.02" shape="31.35,348.25 24.58,347.73 20.00,346.60 15.42,345.47 8.65,344.95"/>
        <lane id=":0/4_5_1" index="1" speed="13.90" length="23.02" shape="31.35,344.95 24.58,344.43 20.00,343.30 15.42,342.17 8.65,341.65"/>
    </edge>
    <edge id=":0/4_7" function="internal">
        <lane id=":0/4_7_0" index="0" speed="13.90" length="20.97" shape="31.35,341.65 25.66,340.84 21.60,338.40 19.16,334.34 18.35,328.65"/>
    </edge>
    <edge id=":0/4_8" function="internal">
        <lane id=":0/4_8_0" index="0" speed="13.90" length="5.00" shape="28.25,328.65 28.44,330.01 29.02,330.98 29.99,331.56 31.35,331.75"/>
    </edge>
    <edge id=":0/4_9" function="internal">
        <lane id=":0/4_9_0" index="0" speed="13.90" length="23.02" shape="28.25,328.65 27.73,335.42 26.60,340.00 25.47,344.58 24.95,351.35"/>
        <lane id=":0/4_9_1" index="1" speed="13.90" length="23.02" shape="24.95,328.65 24.43,335.42 23.30,340.00 22.17,344.58 21.65,351.35"/>
    </edge>
    <edge id=":0/4_11" function="internal">
        <lane id=":0/4_11_0" index="0" speed="13.90" length="20.97" shape="21.65,328.65 20.84,334.34 18.40,338.40 14.34,340.84 8.65,341.65"/>
    </edge>
    <edge id=":0/4_12" function="internal">
        <lane id=":0/4_12_0" index="0" speed="13.90" length="5.00" shape="8.65,331.75 10.01,331.56 10.98,330.98 11.56,330.01 11.75,328.65"/>
    </edge>
    <edge id=":0/4_13" function="internal">
        <lane id=":0/4_13_0" index="0" speed="13.90" length="23.02" shape="8.65,331.75 15.42,332.27 20.00,333.40 24.58,334.53 31.35,335.05"/>
        <lane id=":0/4_13_1" index="1" speed="13.90" length="23.02" shape="8.65,335.05 15.42,335.57 20.00,336.70 24.58,337.83 31.35,338.35"/>
    </edge>
    <edge id=":0/4_15" function="internal">
        <lane id=":0/4_15_0" index="0" speed="13.90" length="20.97" shape="8.65,338.35 14.34,339.16 18.40,341.60 20.84,345.66 21.65,351.35"/>
    </edge>
    <edge id=":0/5_0" function="internal">
        <lane id=":0/5_0_0" index="0" speed="13.90" length="5.00" shape="11.75,431.35 11.56,429.99 10.98,429.02 10.01,428.44 8.65,428.25"/>
    </edge>
    <edge id=":0/5_1" function="internal">
        <lane id=":0/5_1_0" index="0" speed="13.90" length="23.02" shape="11.75,431.35 12.27,424.58 13.40,420.00 14.53,415.42 15.05,408.65"/>
        <lane id=":0/5_1_1" index="1" speed="13.90" length="23.02" shape="15.05,431.35 15.57,424.58 16.70,420.00 17.83,415.42 18.35,408.65"/>
    </edge>
    <edge id=":0/5_3" function="internal">
        <lane id=":0/5_3_0" index="0" speed="13.90" length="20.97" shape="18.35,431.35 19.16,425.66 21.60,421.60 25.66,419.16 31.35,418.35"/>
    </edge>
    <edge id=":0/5_4" function="internal">
        <lane id=":0/5_4_0" index="0" speed="13.90" length="5.00" shape="31.35,428.25 29.99,428.44 29.03,429.02 28.44,429.99 28.25,431.35"/>
    </edge>
    <edge id=":0/5_5" function="internal">
        <lane id=":0/5_5_0" index="0" speed="13.90" length="23.02" shape="31.35,428.25 24.58,427.73 20.00,426.60 15.42,425.47 8.65,424.95"/>
        <lane id=":0/5_5_1" index="1" speed="13.90" length="23.02" shape="31.35,424.95 24.58,424.43 20.00,423.30 15.42,422.17 8.65,421.65"/>
    </edge>
    <edge id=":0/5_7" function="internal">
        <lane id=":0/5_7_0" index="0" speed="13.90" length="20.97" shape="31.35,421.65 25.66,420.84 21.60,418.40 19.16,414.34 18.35,408.65"/>
    </edge>
    <edge id=":0/5_8" function="internal">
        <lane id=":0/5_8_0" index="0" speed="13.90" length="5.00" shape="28.25,408.65 28.44,410.01 29.02,410.98 29.99,411.56 31.35,411.75"/>
    </edge>
    <edge id=":0/5_9" function="internal">
        <lane id=":0/5_9_0" index="0" speed="13.90" length="23.02" shape="28.25,408.65 27.73,415.42 26.60,420.00 25.47,424.58 24.95,431.35"/>
        <lane id=":0/5_9_1" index="1" speed="13.90" length="23.02" shape="24.95,408.65 24.43,415.42 23.30,420.00 22.17,424.58 21.65,431.35"/>
    </edge>
    <edge id=":0/5_11" function="internal">
        <lane id=":0/5_11_0" index="0" speed="13.90" length="20.97" shape="21.65,408.65 20.84,414.34 18.40,418.40 14.34,420.84 8.65,421.65"/>
    </edge>
    <edge id=":0/5_12" function="internal">
        <lane id=":0/5_12_0" index="0" speed="13.90" length="5.00" shape="8.65,411.75 10.01,411.56 10.98,410.98 11.56,410.01 11.75,408.65"/>
    </edge>
    <edge id=":0/5_13" function="internal">
        <lane id=":0/5_13_0" index="0" speed="13.90" length="23.02" shape="8.65,411.75 15.42,412.27 20.00,413.40 24.58,414.53 31.35,415.05"/>
        <lane id=":0/5_13_1" index="1" speed="13.90" length="23.02" shape="8.65,415.05 15.42,415.57 20.00,416.70 24.58,417.83 31.35,418.35"/>
    </edge>
    <edge id=":0/5_15" function="internal">
        <lane id=":0/5_15_0" index="0" speed="13.90" length="20.97" shape="8.65,418.35 14.34,419.16 18.40,421.60 20.84,425.66 21.65,431.35"/>
    </edge>
    <edge id=":0/6_0" function="internal">
        <lane id=":0/6_0_0" index="0" speed="13.90" length="5.00" shape="11.75,511.35 11.56,509.99 10.98,509.02 10.01,508.44 8.65,508.25"/>
    </edge>
    <edge id=":0/6_1" function="internal">
        <lane id=":0/6_1_0" index="0" speed="13.90" length="23.02" shape="11.75,511.35 12.27,504.58 13.40,500.00 14.53,495.42 15.05,488.65"/>
        <lane id=":0/6_1_1" index="1" speed="13.90" length="23.02" shape="15.05,511.35 15.57,504.58 16.70,500.00 17.83,495.42 18.35,488.65"/>
    </edge>
    <edge id=":0/6_3" function="internal">
        <lane id=":0/6_3_0" index="0" speed="13.90" length="20.97" shape="18.35,511.35 19.16,505.66 21.60,501.60 25.66,499.16 31.35,498.35"/>
    </edge>
    <edge id=":0/6_4" function="internal">
        <lane id=":0/6_4_0" index="0" speed="13.90" length="5.00" shape="31.35,508.25 29.99,508.44 29.03,509.02 28.44,509.99 28.25,511.35"/>
    </edge>
    <edge id=":0/6_5" function="internal">
        <lane id=":0/6_5_0" index="0" speed="13.90" length="23.02" shape="31.35,508.25 24.58,507.73 20.00,506.60 15.42,505.47 8.65,504.95"/>
        <lane id=":0/6_5_1" index="1" speed="13.90" length="23.02" shape="31.35,504.95 24.58,504.43 20.00,503.30 15.42,502.17 8.65,501.65"/>
    </edge>
    <edge id=":0/6_7" function="internal">
        <lane id=":0/6_7_0" index="0" speed="13.90" length="20.97" shape="31.35,501.65 25.66,500.84 21.60,498.40 19.16,494.34 18.35,488.65"/>
    </edge>
    <edge id=":0/6_8" function="internal">
        <lane id=":0/6_8_0" index="0" speed="13.90" length="5.00" shape="28.25,488.65 28.44,490.01 29.02,490.98 29.99,491.56 31.35,491.75"/>
    </edge>
    <edge id=":0/6_9" function="internal">
        <lane id=":0/6_9_0" index="0" speed="13.90" length="23.02" shape="28.25,488.65 27.73,495.42 26.60,500.00 25.47,504.58 24.95,511.35"/>
        <lane id=":0/6_9_1" index="1" speed="13.90" length="23.02" shape="24.95,488.65 24.43,495.42 23.30,500.00 22.17,504.58 21.65,511.35"/>
    </edge>
    <edge id=":0/6_11" function="internal">
        <lane id=":0/6_11_0" index="0" speed="13.90" length="20.97" shape="21.65,488.65 20.84,494.34 18.40,498.40 14.34,500.84 8.65,501.65"/>
    </edge>
    <edge id=":0/6_12" function="internal">
        <lane id=":0/6_12_0" index="0" speed="13.90" length="5.00" shape="8.65,491.75 10.01,491.56 10.98,490.98 11.56,490.01 11.75,488.65"/>
    </edge>
    <edge id=":0/6_13" function="internal">
        <lane id=":0/6_13_0" index="0" speed="13.90" length="23.02" shape="8.65,491.75 15.42,492.27 20.00,493.40 24.58,494.53 31.35,495.05"/>
        <lane id=":0/6_13_1" index="1" speed="13.90" length="23.02" shape="8.65,495.05 15.42,495.57 20.00,496.70 24.58,497.83 31.35,498.35"/>
    </edge>
    <edge id=":0/6_15" function="internal">
        <lane id=":0/6_15_0" index="0" speed="13.90" length="20.97" shape="8.65,498.35 14.34,499.16 18.40,501.60 20.84,505.66 21.65,511.35"/>
    </edge>
    <edge id=":0/7_0" function="internal">
        <lane id=":0/7_0_0" index="0" speed="13.90" length="5.00" shape="11.75,591.35 11.56,589.99 10.98,589.02 10.01,588.44 8.65,588.25"/>
    </edge>
    <edge id=":0/7_1" function="internal">
        <lane id=":0/7_1_0" index="0" speed="13.90" length="23.02" shape="11.75,591.35 12.27,584.58 13.40,580.00 14.53,575.42 15.05,568.65"/>
        <lane id=":0/7_1_1" index="1" speed="13.90" length="23.02" shape="15.05,591.35 15.57,584.58 16.70,580.00 17.83,575.42 18.35,568.65"/>
    </edge>
    <edge id=":0/7_3" function="internal">
        <lane id=":0/7_3_0" index="0" speed="13.90" length="20.97" shape="18.35,591.35 19.16,585.66 21.60,581.60 25.66,579.16 31.35,578.35"/>
    </edge>
    <edge id=":0/7_4" function="internal">
        <lane id=":0/7_4_0" index="0" speed="13.90" length="5.00" shape="31.35,588.25 29.99,588.44 29.03,589.02 28.44,589.99 28.25,591.35"/>
    </edge>
    <edge id=":0/7_5" function="internal">
        <lane id=":0/7_5_0" index="0" speed="13.90" length="23.02" shape="31.35,588.25 24.58,587.73 20.00,586.60 15.42,585.47 8.65,584.95"/>
        <lane id=":0/7_5_1" index="1" speed="13.90" length="23.02" shape="31.35,584.95 24.58,584.43 20.00,583.30 15.42,582.17 8.65,581.65"/>
    </edge>
    <edge id=":0/7_7" function="internal">
        <lane id=":0/7_7_0" index="0" speed="13.90" length="20.97" shape="31.35,581.65 25.66,580.84 21.60,578.40 19.16,574.34 18.35,568.65"/>
    </edge>
    <edge id=":0/7_8" function="internal">
        <lane id=":0/7_8_0" index="0" speed="13.90" length="5.00" shape="28.25,568.65 28.44,570.01 29.02,570.98 29.99,571.56 31.35,571.75"/>
    </edge>
    <edge id=":0/7_9" function="internal">
        <lane id=":0/7_9_0" index="0" speed="13.90" length="23.02" shape="28.25,568.65 27.73,575.42 26.60,580.00 25.47,584.58 24.95,591.35"/>
        <lane id=":0/7_9_1" index="1" speed="13.90" length="23.02" shape="24.95,568.65 24.43,575.42 23.30,580.00 22.17,584.58 21.65,591.35"/>
    </edge>
    <edge id=":0/7_11" function="internal">
        <lane id=":0/7_11_0" index="0" speed="13.90" length="20.97" shape="21.65,568.65 20.84,574.34 18.40,578.40 14.34,580.84 8.65,581.65"/>
    </edge>
    <edge id=":0/7_12" function="internal">
        <lane id=":0/7_12_0" index="0" speed="13.90" length="5.00" shape="8.65,571.75 10.01,571.56 10.98,570.98 11.56,570.01 11.75,568.65"/>
    </edge>
    <edge id=":0/7_13" function="internal">
        <lane id=":0/7_13_0" index="0" speed="13.90" length="23.02" shape="8.65,571.75 15.42,572.27 20.00,573.40 24.58,574.53 31.35,575.05"/>
        <lane id=":0/7_13_1" index="1" speed="13.90" length="23.02" shape="8.65,575.05 15.42,575.57 20.00,576.70 24.58,577.83 31.35,578.35"/>
    </edge>
    <edge id=":0/7_15" function="internal">
        <lane id=":0/7_15_0" index="0" speed="13.90" length="20.97" shape="8.65,578.35 14.34,579.16 18.40,581.60 20.84,585.66 21.65,591.35"/>
    </edge>
    <edge id=":0/8_0" function="internal">
        <lane id=":0/8_0_0" index="0" speed="13.90" length="5.00" shape="11.75,671.35 11.56,669.99 10.98,669.02 10.01,668.44 8.65,668.25"/>
    </edge>
    <edge id=":0/8_1" function="internal">
        <lane id=":0/8_1_0" index="0" speed="13.90" length="23.02" shape="11.75,671.35 12.27,664.58 13.40,660.00 14.53,655.42 15.05,648.65"/>
        <lane id=":0/8_1_1" index="1" speed="13.90" length="23.02" shape="15.05,671.35 15.57,664.58 16.70,660.00 17.83,655.42 18.35,648.65"/>
    </edge>
    <edge id=":0/8_3" function="internal">
        <lane id=":0/8_3_0" index="0" speed="13.90" length="20.97" shape="18.35,671.35 19.16,665.66 21.60,661.60 25.66,659.16 31.35,658.35"/>
    </edge>
    <edge id=":0/8_4" function="internal">
        <lane id=":0/8_4_0" index="0" speed="13.90" length="5.00" shape="31.35,668.25 29.99,668.44 29.02,669.02 28.44,669.99 28.25,671.35"/>
    </edge>
    <edge id=":0/8_5" function="internal">
        <lane id=":0/8_5_0" index="0" speed="13.90" length="23.02" shape="31.35,668.25 24.58,667.73 20.00,666.60 15.42,665.47 8.65,664.95"/>
        <lane id=":0/8_5_1" index="1" speed="13.90" length="23.02" shape="31.35,664.95 24.58,664.43 20.00,663.30 15.42,662.17 8.65,661.65"/>
    </edge>
    <edge id=":0/8_7" function="internal">
        <lane id=":0/8_7_0" index="0" speed="13.90" length="20.97" shape="31.35,661.65 25.66,660.84 21.60,658.40 19.16,654.34 18.35,648.65"/>
    </edge>
    <edge id=":0/8_8" function="internal">
        <lane id=":0/8_8_0" index="0" speed="13.90" length="5.00" shape="28.25,648.65 28.44,650.01 29.02,650.98 29.99,651.56 31.35,651.75"/>
    </edge>
    <edge id=":0/8_9" function="internal">
        <lane id=":0/8_9_0" index="0" speed="13.90" length="23.02" shape="28.25,648.65 27.73,655.42 26.60,660.00 25.47,664.58 24.95,671.35"/>
        <lane id=":0/8_9_1" index="1" speed="13.90" length="23.02" shape="24.95,648.65 24.43,655.42 23.30,660.00 22.17,664.58 21.65,671.35"/>
    </edge>
    <edge id=":0/8_11" function="internal">
        <lane id=":0/8_11_0" index="0" speed="13.90" length="20.97" shape="21.65,648.65 20.84,654.34 18.40,658.40 14.34,660.84 8.65,661.65"/>
    </edge>
    <edge id=":0/8_12" function="internal">
        <lane id=":0/8_12_0" index="0" speed="13.90" length="5.00" shape="8.65,651.75 10.01,651.56 10.98,650.98 11.56,650.01 11.75,648.65"/>
    </edge>
    <edge id=":0/8_13" function="internal">
        <lane id=":0/8_13_0" index="0" speed="13.90" length="23.02" shape="8.65,651.75 15.42,652.27 20.00,653.40 24.58,654.53 31.35,655.05"/>
        <lane id=":0/8_13_1" index="1" speed="13.90" length="23.02" shape="8.65,655.05 15.42,655.57 20.00,656.70 24.58,657.83 31.35,658.35"/>
    </edge>
    <edge id=":0/8_15" function="internal">
        <lane id=":0/8_15_0" index="0" speed="13.90" length="20.97" shape="8.65,658.35 14.34,659.16 18.40,661.60 20.84,665.66 21.65,671.35"/>
    </edge>
    <edge id=":0/9_0" function="internal">
        <lane id=":0/9_0_0" index="0" speed="13.90" length="5.00" shape="11.75,751.35 11.56,749.99 10.98,749.02 10.01,748.44 8.65,748.25"/>
    </edge>
    <edge id=":0/9_1" function="internal">
        <lane id=":0/9_1_0" index="0" speed="13.90" length="23.02" shape="11.75,751.35 12.27,744.58 13.40,740.00 14.53,735.42 15.05,728.65"/>
        <lane id=":0/9_1_1" index="1" speed="13.90" length="23.02" shape="15.05,751.35 15.57,744.58 16.70,740.00 17.83,735.42 18.35,728.65"/>
    </edge>
    <edge id=":0/9_3" function="internal">
        <lane id=":0/9_3_0" index="0" speed="13.90" length="20.97" shape="18.35,751.35 19.16,745.66 21.60,741.60 25.66,739.16 31.35,738.35"/>
    </edge>
    <edge id=":0/9_4" function="internal">
        <lane id=":0/9_4_0" index="0" speed="13.90" length="5.00" shape="31.35,748.25 29.99,748.44 29.03,749.02 28.44,749.99 28.25,751.35"/>
    </edge>
    <edge id=":0/9_5" function="internal">
        <lane id=":0/9_5_0" index="0" speed="13.90" length="23.02" shape="31.35,748.25 24.58,747.73 20.00,746.60 15.42,745.47 8.65,744.95"/>
        <lane id=":0/9_5_1" index="1" speed="13.90" length="23.02" shape="31.35,744.95 24.58,744.43 20.00,743.30 15.42,742.17 8.65,741.65"/>
    </edge>
    <edge id=":0/9_7" function="internal">
        <lane id=":0/9_7_0" index="0" speed="13.90" length="20.97" shape="31.35,741.65 25.66,740.84 21.60,738.40 19.16,734.34 18.35,728.65"/>
    </edge>
    <edge id=":0/9_8" function="internal">
        <lane id=":0/9_8_0" index="0" speed="13.90" length="5.00" shape="28.25,728.65 28.44,730.01 29.02,730.98 29.99,731.56 31.35,731.75"/>
    </edge>
    <edge id=":0/9_9" function="internal">
        <lane id=":0/9_9_0" index="0" speed="13.90" length="23.02" shape="28.25,728.65 27.73,735.42 26.60,740.00 25.47,744.58 24.95,751.35"/>
        <lane id=":0/9_9_1" index="1" speed="13.90" length="23.02" shape="24.95,728.65 24.43,735.42 23.30,740.00 22.17,744.58 21.65,751.35"/>
    </edge>
    <edge id=":0/9_11" function="internal">
        <lane id=":0/9_11_0" index="0" speed="13.90" length="20.97" shape="21.65,728.65 20.84,734.34 18.40,738.40 14.34,740.84 8.65,741.65"/>
    </edge>
    <edge id=":0/9_12" function="internal">
        <lane id=":0/9_12_0" index="0" speed="13.90" length="5.00" shape="8.65,731.75 10.01,731.56 10.98,730.98 11.56,730.01 11.75,728.65"/>
    </edge>
    <edge id=":0/9_13" function="internal">