[General]
cmdenv-express-mode = true
cmdenv-autoflush = true
cmdenv-status-frequency = 10000000s

#tkenv-default-config = debug
#tkenv-default-run = 1
ned-path = .

network = GridScenario

##########################################################
#            Simulation parameters                       #
##########################################################
debug-on-errors = true
num-rngs = 1
print-undisposed = true

seed-set = 1
sim-time-limit = 300s
#warmup-period = 200s

**.scalar-recording = true
**.vector-recording = true

**.debug = false
**.coreDebug = false


*.playgroundSizeX = 1200m
*.playgroundSizeY = 900m
*.playgroundSizeZ = 50m


##########################################################
# Annotation parameters                                  #
##########################################################
*.annotations.draw = true

##########################################################
#            WorldUtility parameters                     #
##########################################################
*.world.useTorus = false
*.world.use2D = false

##########################################################
#            TraCIScenarioManager parameters             #
##########################################################
*.manager.updateInterval = 1s
*.manager.host = "localhost"
*.manager.port = 9999
*.manager.moduleType = "org.car2x.veins.nodes.Car"
*.manager.moduleName = "node"
*.manager.moduleDisplayString = ""
*.manager.autoShutdown = true
*.manager.margin = 25
#*.manager.launchConfig = xmldoc("C:/Users/Jacob/src/omnetpp-5.0/samples/grid/simulations/sumo2/manhattan.launchd.xml")
*.manager.launchConfig = xmldoc("grid.launchd.xml")

##########################################################
#            11p specific parameters                     #
#                                                        #
#                    NIC-Settings                        #
##########################################################
*.connectionManager.pMax = 20mW
*.connectionManager.sat = -89dBm
*.connectionManager.alpha = 2.0
*.connectionManager.carrierFrequency = 5.890e9 Hz
*.connectionManager.sendDirect = true
*.connectionManager.maxInterfDist = 500m

*.**.nic.mac1609_4.useServiceChannel = false

*.**.nic.mac1609_4.txPower = 20mW
*.**.nic.mac1609_4.bitrate = 6Mbps

*.**.nic.phy80211p.sensitivity = -89dBm
*.**.nic.phy80211p.useThermalNoise = true
*.**.nic.phy80211p.thermalNoise = -110dBm
*.**.nic.phy80211p.usePropagationDelay = true
*.**.nic.phy80211p.collectCollisionStatistics = true

##########################################################
#                    WaveAppLayer                        #
##########################################################
*.node[*].applType = "VirusAppl"
*.node[*].appl.debug = false

##########################################################
#                      Mobility                          #
##########################################################
*.node[*].veinsmobilityType = "org.car2x.veins.modules.mobility.traci.TraCIMobility"
*.node[*].mobilityType = "TraCIMobility"
*.node[*].mobilityType.debug = true
*.node[*].veinsmobilityType.debug = true
*.node[*].veinsmobility.x = 0
*.node[*].veinsmobility.y = 0
*.node[*].veinsmobility.z = 1.895
*.node[*0].veinsmobility.accidentCount = 0
*.node[*0].veinsmobility.accidentStart = 75s
*.node[*0].veinsmobility.accidentDuration = 30s

##########################################################
#                      PHY Configuarions                 #
##########################################################
*.**.nic.phy80211p.decider = xmldoc("config.xml")
*.**.nic.phy80211p.analogueModels = xmldoc("config.xml")
#*.obstacles.obstacles = xmldoc("config_obs.xml", "//AnalogueModel[@type='SimpleObstacleShadowing']/obstacles")