<?xml version="1.0"?>
<!-- generated on 2017-07-31 10:30:44.260270 by $Id: randomTrips.py 23999 2017-04-21 09:04:47Z behrisch $
  options: -n grid.net.xml -o grid-0p4/grid-0p4.trips.xml -r grid-0p4/grid-0p4.rou.xml -e 100 -p 0.4
-->
<routes xmlns:xsi="http://www.w3.org/2001/XMLSchema-instance" xsi:noNamespaceSchemaLocation="http://sumo.dlr.de/xsd/routes_file.xsd">
    <trip id="0" depart="0.00" from="top4to4/9" to="3/4to4/4"/>
    <trip id="1" depart="0.40" from="3/8to3/7" to="1/3to0/3"/>
    <trip id="2" depart="0.80" from="3/2to3/1" to="2/2to1/2"/>
    <trip id="3" depart="1.20" from="2/6to2/7" to="4/0to4/1"/>
    <trip id="4" depart="1.60" from="1/7to1/8" to="1/3to0/3"/>
    <trip id="5" depart="2.00" from="1/2to2/2" to="0/2to0/1"/>
    <trip id="6" depart="2.40" from="left7to0/7" to="1/7to1/6"/>
    <trip id="7" depart="2.80" from="2/2to3/2" to="4/2to3/2"/>
    <trip id="8" depart="3.20" from="1/5to1/6" to="4/6to3/6"/>
    <trip id="9" depart="3.60" from="1/9to1/8" to="3/3to4/3"/>
    <trip id="10" depart="4.00" from="1/6to1/7" to="2/6to2/5"/>
    <trip id="11" depart="4.40" from="left9to0/9" to="4/7toright7"/>
    <trip id="12" depart="4.80" from="2/1to1/1" to="1/3to1/4"/>
    <trip id="13" depart="5.20" from="2/4to2/5" to="0/2toleft2"/>
    <trip id="14" depart="5.60" from="0/1to1/1" to="2/6to2/7"/>
    <trip id="15" depart="6.00" from="left0to0/0" to="2/1to3/1"/>
    <trip id="16" depart="6.40" from="right8to4/8" to="4/8to4/7"/>
    <trip id="17" depart="6.80" from="3/0to2/0" to="0/0to0/1"/>
    <trip id="18" depart="7.20" from="4/8to3/8" to="3/0to4/0"/>
    <trip id="19" depart="7.60" from="4/6to4/7" to="2/4to2/3"/>
    <trip id="20" depart="8.00" from="3/0to3/1" to="0/0to0/1"/>
    <trip id="21" depart="8.40" from="0/1to1/1" to="4/9to4/8"/>
    <trip id="22" depart="8.80" from="2/2to3/2" to="3/9to4/9"/>
    <trip id="23" depart="9.20" from="0/9to1/9" to="0/6to0/5"/>
    <trip id="24" depart="9.60" from="0/7to1/7" to="3/1to3/0"/>
    <trip id="25" depart="10.00" from="left0to0/0" to="1/6to1/5"/>
    <trip id="26" depart="10.40" from="1/8to0/8" to="2/1to1/1"/>
    <trip id="27" depart="10.80" from="0/8to0/9" to="0/7to0/8"/>
    <trip id="28" depart="11.20" from="0/3to1/3" to="0/0to1/0"/>
    <trip id="29" depart="11.60" from="right5to4/5" to="3/3to2/3"/>
    <trip id="30" depart="12.00" from="1/0to2/0" to="3/0tobottom3"/>
    <trip id="31" depart="12.40" from="1/5to0/5" to="1/8to2/8"/>
    <trip id="32" depart="12.80" from="1/8to2/8" to="2/4to3/4"/>
    <trip id="33" depart="13.20" from="bottom3to3/0" to="0/6to1/6"/>
    <trip id="34" depart="13.60" from="3/3to3/2" to="3/2to3/3"/>
    <trip id="35" depart="14.00" from="3/8to4/8" to="3/2to2/2"/>
    <trip id="36" depart="14.40" from="0/3to1/3" to="4/5toright5"/>
    <trip id="37" depart="14.80" from="1/6to1/5" to="2/5to3/5"/>
    <trip id="38" depart="15.20" from="2/9to1/9" to="3/3to3/2"/>
    <trip id="39" depart="15.60" from="right8to4/8" to="4/7to4/6"/>
    <trip id="40" depart="16.00" from="3/8to3/7" to="2/1to1/1"/>
    <trip id="41" depart="16.40" from="2/0to2/1" to="3/5to2/5"/>
    <trip id="42" depart="16.80" from="0/3to1/3" to="4/9to4/8"/>
    <trip id="43" depart="17.20" from="2/8to2/9" to="2/8to1/8"/>
    <trip id="44" depart="17.60" from="left2to0/2" to="2/5to1/5"/>
    <trip id="45" depart="18.00" from="4/3to3/3" to="1/3to2/3"/>
    <trip id="46" depart="18.40" from="left6to0/6" to="0/5to0/4"/>
    <trip id="47" depart="18.80" from="4/3to4/2" to="3/0to3/1"/>
    <trip id="48" depart="19.20" from="3/7to3/6" to="2/1to1/1"/>
    <trip id="49" depart="19.60" from="0/4to0/5" to="2/4to2/3"/>
    <trip id="50" depart="20.00" from="1/8to0/8" to="3/4to4/4"/>
    <trip id="51" depart="20.40" from="1/1to0/1" to="3/9to2/9"/>
    <trip id="52" depart="20.80" from="2/6to2/5" to="4/4to3/4"/>
    <trip id="53" depart="21.20" from="bottom2to2/0" to="1/3to0/3"/>
    <trip id="54" depart="21.60" from="4/6to4/5" to="0/6to0/5"/>
    <trip id="55" depart="22.00" from="4/7to4/6" to="2/9to2/8"/>
    <trip id="56" depart="22.40" from="2/9to3/9" to="1/2to0/2"/>
    <trip id="57" depart="22.80" from="4/1to4/0" to="1/6to0/6"/>
    <trip id="58" depart="23.20" from="1/6to0/6" to="2/2to2/3"/>
    <trip id="59" depart="23.60" from="0/3to0/4" to="2/2to3/2"/>
    <trip id="60" depart="24.00" from="3/6to2/6" to="4/2to4/1"/>
    <trip id="61" depart="24.40" from="0/1to1/1" to="3/8to4/8"/>
    <trip id="62" depart="24.80" from="2/5to2/4" to="0/6to0/5"/>
    <trip id="63" depart="25.20" from="4/8to4/7" to="3/6to2/6"/>
    <trip id="64" depart="25.60" from="left1to0/1" to="2/8to2/9"/>
    <trip id="65" depart="26.00" from="3/5to3/4" to="2/4to1/4"/>
    <trip id="66" depart="26.40" from="3/6to2/6" to="1/2to0/2"/>
    <trip id="67" depart="26.80" from="1/6to2/6" to="2/2to1/2"/>
    <trip id="68" depart="27.20" from="1/9to0/9" to="4/5to4/4"/>
    <trip id="69" depart="27.60" from="top1to1/9" to="4/6to3/6"/>
    <trip id="70" depart="28.00" from="1/0to0/0" to="4/6to4/5"/>
    <trip id="71" depart="28.40" from="bottom1to1/0" to="0/3to0/2"/>
    <trip id="72" depart="28.80" from="1/6to1/7" to="4/1to4/0"/>
    <trip id="73" depart="29.20" from="1/5to1/6" to="1/1to1/0"/>
    <trip id="74" depart="29.60" from="2/6to2/7" to="2/8to2/7"/>
    <trip id="75" depart="30.00" from="4/1to4/2" to="3/4to3/5"/>
    <trip id="76" depart="30.40" from="1/7to0/7" to="3/1to4/1"/>
    <trip id="77" depart="30.80" from="top2to2/9" to="1/6to1/7"/>
    <trip id="78" depart="31.20" from="top0to0/9" to="1/3to2/3"/>
    <trip id="79" depart="31.60" from="4/3to3/3" to="4/5to4/6"/>
    <trip id="80" depart="32.00" from="4/1to4/0" to="4/4to4/5"/>
    <trip id="81" depart="32.40" from="2/3to1/3" to="0/9to0/8"/>
    <trip id="82" depart="32.80" from="2/3to2/4" to="3/9to2/9"/>
    <trip id="83" depart="33.20" from="2/8to2/7" to="2/6to2/5"/>
    <trip id="84" depart="33.60" from="2/2to1/2" to="2/4to2/5"/>
    <trip id="85" depart="34.00" from="4/1to4/2" to="3/6to4/6"/>
    <trip id="86" depart="34.40" from="2/7to1/7" to="1/8to1/9"/>
    <trip id="87" depart="34.80" from="2/5to3/5" to="2/0tobottom2"/>
    <trip id="88" depart="35.20" from="1/2to2/2" to="4/5to4/6"/>
    <trip id="89" depart="35.60" from="right0to4/0" to="1/0to1/1"/>
    <trip id="90" depart="36.00" from="4/2to4/3" to="1/6to2/6"/>
    <trip id="91" depart="36.40" from="4/6to4/7" to="0/5toleft5"/>
    <trip id="92" depart="36.80" from="3/5to2/5" to="1/5to0/5"/>
    <trip id="93" depart="37.20" from="4/9to4/8" to="3/0to4/0"/>
    <trip id="94" depart="37.60" from="3/8to3/7" to="0/9totop0"/>
    <trip id="95" depart="38.00" from="2/9to2/8" to="3/2to2/2"/>
    <trip id="96" depart="38.40" from="2/1to2/2" to="1/9to2/9"/>
    <trip id="97" depart="38.80" from="0/7to0/6" to="0/7to0/8"/>
    <trip id="98" depart="39.20" from="4/4to3/4" to="1/7to0/7"/>
    <trip id="99" depart="39.60" from="left7to0/7" to="1/5to1/4"/>
    <trip id="100" depart="40.00" from="1/2to0/2" to="3/7to4/7"/>
    <trip id="101" depart="40.40" from="2/6to3/6" to="1/7to0/7"/>
    <trip id="102" depart="40.80" from="1/8to2/8" to="0/6to1/6"/>
    <trip id="103" depart="41.20" from="2/6to1/6" to="1/0tobottom1"/>
    <trip id="104" depart="41.60" from="right9to4/9" to="2/8to3/8"/>
    <trip id="105" depart="42.00" from="4/4to3/4" to="4/8to3/8"/>
    <trip id="106" depart="42.40" from="4/0to4/1" to="4/5to4/4"/>
    <trip id="107" depart="42.80" from="left3to0/3" to="0/7toleft7"/>
    <trip id="108" depart="43.20" from="2/2to2/3" to="0/1to0/2"/>
    <trip id="109" depart="43.60" from="2/7to3/7" to="2/6to1/6"/>
    <trip id="110" depart="44.00" from="3/7to4/7" to="4/8to4/7"/>
    <trip id="111" depart="44.40" from="3/2to3/1" to="0/4toleft4"/>
    <trip id="112" depart="44.80" from="left9to0/9" to="1/4to1/3"/>
    <trip id="113" depart="45.20" from="1/0to2/0" to="2/0to1/0"/>
    <trip id="114" depart="45.60" from="2/2to2/3" to="3/5to3/4"/>
    <trip id="115" depart="46.00" from="2/0to2/1" to="2/6to3/6"/>
    <trip id="116" depart="46.40" from="4/6to4/7" to="0/1toleft1"/>
    <trip id="117" depart="46.80" from="2/7to2/8" to="0/3to1/3"/>
    <trip id="118" depart="47.20" from="0/3to0/4" to="0/8toleft8"/>
    <trip id="119" depart="47.60" from="1/2to2/2" to="2/3to2/2"/>
    <trip id="120" depart="48.00" from="3/8to4/8" to="2/6to3/6"/>
    <trip id="121" depart="48.40" from="2/7to2/6" to="3/9to3/8"/>
    <trip id="122" depart="48.80" from="3/4to4/4" to="2/5to2/4"/>
    <trip id="123" depart="49.20" from="2/7to2/6" to="1/5to0/5"/>
    <trip id="124" depart="49.60" from="3/2to4/2" to="0/5to0/4"/>
    <trip id="125" depart="50.00" from="2/3to2/4" to="0/6to1/6"/>
    <trip id="126" depart="50.40" from="2/1to2/2" to="3/5to3/6"/>
    <trip id="127" depart="50.80" from="2/4to2/5" to="3/6to3/5"/>
    <trip id="128" depart="51.20" from="2/8to1/8" to="1/4to1/3"/>
    <trip id="129" depart="51.60" from="1/1to0/1" to="1/1to1/2"/>
    <trip id="130" depart="52.00" from="2/3to2/2" to="3/4to3/5"/>
    <trip id="131" depart="52.40" from="1/8to1/9" to="1/5to1/6"/>
    <trip id="132" depart="52.80" from="1/1to0/1" to="3/0to2/0"/>
    <trip id="133" depart="53.20" from="1/8to1/7" to="4/0tobottom4"/>
    <trip id="134" depart="53.60" from="3/1to2/1" to="0/1toleft1"/>
    <trip id="135" depart="54.00" from="3/9to2/9" to="1/7to0/7"/>
    <trip id="136" depart="54.40" from="2/7to3/7" to="1/6to1/5"/>
    <trip id="137" depart="54.80" from="1/0to1/1" to="3/2to4/2"/>
    <trip id="138" depart="55.20" from="3/0to4/0" to="1/4to1/3"/>
    <trip id="139" depart="55.60" from="4/2to3/2" to="3/3to3/2"/>
    <trip id="140" depart="56.00" from="2/3to3/3" to="2/1to2/2"/>
    <trip id="141" depart="56.40" from="1/8to2/8" to="2/9to1/9"/>
    <trip id="142" depart="56.80" from="4/8to4/9" to="4/9totop4"/>
    <trip id="143" depart="57.20" from="2/3to2/2" to="3/9totop3"/>
    <trip id="144" depart="57.60" from="2/2to2/3" to="4/0toright0"/>
    <trip id="145" depart="58.00" from="0/2to0/3" to="1/5to1/6"/>
    <trip id="146" depart="58.40" from="2/2to2/3" to="1/2to0/2"/>
    <trip id="147" depart="58.80" from="0/6to1/6" to="4/5to4/4"/>
    <trip id="148" depart="59.20" from="right9to4/9" to="3/5to2/5"/>
    <trip id="149" depart="59.60" from="bottom2to2/0" to="3/2to4/2"/>
    <trip id="150" depart="60.00" from="1/4to2/4" to="4/9to3/9"/>
    <trip id="151" depart="60.40" from="0/5to1/5" to="2/3to1/3"/>
    <trip id="152" depart="60.80" from="2/1to3/1" to="1/8to0/8"/>
    <trip id="153" depart="61.20" from="1/2to2/2" to="3/6to3/5"/>
    <trip id="154" depart="61.60" from="1/5to1/4" to="0/9to0/8"/>
    <trip id="155" depart="62.00" from="4/5to4/4" to="1/4to0/4"/>
    <trip id="156" depart="62.40" from="2/1to1/1" to="4/7to3/7"/>
    <trip id="157" depart="62.80" from="2/3to2/2" to="0/3toleft3"/>
    <trip id="158" depart="63.20" from="1/7to1/8" to="3/7to3/8"/>
    <trip id="159" depart="63.60" from="4/9to4/8" to="1/9to1/8"/>
    <trip id="160" depart="64.00" from="1/4to2/4" to="0/6to0/7"/>
    <trip id="161" depart="64.40" from="right9to4/9" to="2/0to3/0"/>
    <trip id="162" depart="64.80" from="3/9to3/8" to="4/3toright3"/>
    <trip id="163" depart="65.20" from="3/8to2/8" to="3/7to2/7"/>
    <trip id="164" depart="65.60" from="left5to0/5" to="3/3to2/3"/>
    <trip id="165" depart="66.00" from="1/9to1/8" to="3/8to3/9"/>
    <trip id="166" depart="66.40" from="3/3to3/4" to="3/7to4/7"/>
    <trip id="167" depart="66.80" from="top0to0/9" to="1/1to2/1"/>
    <trip id="168" depart="67.20" from="3/6to4/6" to="3/3to3/4"/>
    <trip id="169" depart="67.60" from="1/7to1/6" to="0/7to0/6"/>
    <trip id="170" depart="68.00" from="4/2to4/3" to="4/7to4/8"/>
    <trip id="171" depart="68.40" from="4/8to4/7" to="3/1to2/1"/>
    <trip id="172" depart="68.80" from="1/0to0/0" to="1/2to2/2"/>
    <trip id="173" depart="69.20" from="1/8to2/8" to="1/7to2/7"/>
    <trip id="174" depart="69.60" from="1/2to1/3" to="1/6to2/6"/>
    <trip id="175" depart="70.00" from="2/8to2/9" to="1/6to2/6"/>
    <trip id="176" depart="70.40" from="3/7to4/7" to="1/9totop1"/>
    <trip id="177" depart="70.80" from="2/9to1/9" to="3/4to4/4"/>
    <trip id="178" depart="71.20" from="0/7to1/7" to="3/9to3/8"/>
    <trip id="179" depart="71.60" from="2/8to2/9" to="4/8to3/8"/>
    <trip id="180" depart="72.00" from="1/4to1/3" to="4/9to4/8"/>
    <trip id="181" depart="72.40" from="2/3to3/3" to="3/2to2/2"/>
    <trip id="182" depart="72.80" from="right8to4/8" to="3/1to4/1"/>
    <trip id="183" depart="73.20" from="4/1to4/2" to="2/1to3/1"/>
    <trip id="184" depart="73.60" from="top4to4/9" to="3/8to3/7"/>
    <trip id="185" depart="74.00" from="2/0to1/0" to="4/1toright1"/>
    <trip id="186" depart="74.40" from="4/6to3/6" to="0/4toleft4"/>
    <trip id="187" depart="74.80" from="2/5to2/4" to="2/9totop2"/>
    <trip id="188" depart="75.20" from="3/5to3/6" to="4/1to4/0"/>
    <trip id="189" depart="75.60" from="3/5to2/5" to="0/3to0/4"/>
    <trip id="190" depart="76.00" from="4/0to3/0" to="2/7to3/7"/>
    <trip id="191" depart="76.40" from="bottom0to0/0" to="3/8to2/8"/>
    <trip id="192" depart="76.80" from="3/5to2/5" to="1/2to0/2"/>
    <trip id="193" depart="77.20" from="3/4to3/5" to="1/5to1/4"/>
    <trip id="194" depart="77.60" from="right7to4/7" to="2/0tobottom2"/>
    <trip id="195" depart="78.00" from="right6to4/6" to="1/9to1/8"/>
    <trip id="196" depart="78.40" from="2/2to2/3" to="0/5to0/4"/>
    <trip id="197" depart="78.80" from="3/3to2/3" to="2/9to1/9"/>
    <trip id="198" depart="79.20" from="4/3to3/3" to="3/6to3/5"/>
    <trip id="199" depart="79.60" from="0/2to0/1" to="0/4toleft4"/>
    <trip id="200" depart="80.00" from="2/8to3/8" to="3/5to3/6"/>
    <trip id="201" depart="80.40" from="0/9to0/8" to="4/2to4/3"/>
    <trip id="202" depart="80.80" from="2/0to2/1" to="3/2to3/3"/>
    <trip id="203" depart="81.20" from="0/8to0/7" to="4/2to3/2"/>
    <trip id="204" depart="81.60" from="3/1to3/0" to="2/9to2/8"/>
    <trip id="205" depart="82.00" from="4/1to4/0" to="3/9totop3"/>
    <trip id="206" depart="82.40" from="3/1to3/0" to="3/5to3/4"/>
    <trip id="207" depart="82.80" from="left0to0/0" to="2/0to1/0"/>
    <trip id="208" depart="83.20" from="3/8to4/8" to="0/8to0/7"/>
    <trip id="209" depart="83.60" from="right8to4/8" to="3/6to2/6"/>
    <trip id="210" depart="84.00" from="bottom2to2/0" to="3/5to3/6"/>
    <trip id="211" depart="84.40" from="3/6to4/6" to="2/8to2/7"/>
    <trip id="212" depart="84.80" from="3/5to4/5" to="4/9toright9"/>
    <trip id="213" depart="85.20" from="3/8to3/7" to="3/5to3/6"/>
    <trip id="214" depart="85.60" from="4/8to4/7" to="4/8to4/7"/>
    <trip id="215" depart="86.00" from="3/1to4/1" to="3/7to4/7"/>
    <trip id="216" depart="86.40" from="0/1to0/2" to="0/5to1/5"/>
    <trip id="217" depart="86.80" from="4/2to3/2" to="1/0to2/0"/>
    <trip id="218" depart="87.20" from="right1to4/1" to="0/3to1/3"/>
    <trip id="219" depart="87.60" from="1/4to1/3" to="0/6to1/6"/>
    <trip id="220" depart="88.00" from="1/5to1/4" to="0/8to1/8"/>
    <trip id="221" depart="88.40" from="0/9to0/8" to="1/3to1/4"/>
    <trip id="222" depart="88.80" from="2/1to2/2" to="4/7to4/8"/>
    <trip id="223" depart="89.20" from="3/2to2/2" to="0/3to0/2"/>
    <trip id="224" depart="89.60" from="4/2to4/1" to="3/8to2/8"/>
    <trip id="225" depart="90.00" from="4/7to4/8" to="1/7to1/8"/>
    <trip id="226" depart="90.40" from="1/9to0/9" to="3/8to4/8"/>
    <trip id="227" depart="90.80" from="left9to0/9" to="3/4to2/4"/>
    <trip id="228" depart="91.20" from="0/1to1/1" to="1/2to1/1"/>
    <trip id="229" depart="91.60" from="2/9to2/8" to="4/2to3/2"/>
    <trip id="230" depart="92.00" from="3/2to3/3" to="1/4to0/4"/>
    <trip id="231" depart="92.40" from="2/8to2/9" to="0/7to0/6"/>
    <trip id="232" depart="92.80" from="right6to4/6" to="3/0to2/0"/>
    <trip id="233" depart="93.20" from="4/3to3/3" to="4/2to3/2"/>
    <trip id="234" depart="93.60" from="0/2to0/1" to="3/9to3/8"/>
    <trip id="235" depart="94.00" from="0/4to0/5" to="0/2to0/1"/>
    <trip id="236" depart="94.40" from="1/2to2/2" to="4/8to4/9"/>
    <trip id="237" depart="94.80" from="3/7to2/7" to="3/3to4/3"/>
    <trip id="238" depart="95.20" from="0/1to0/0" to="1/7to2/7"/>
    <trip id="239" depart="95.60" from="3/1to2/1" to="2/0to1/0"/>
    <trip id="240" depart="96.00" from="1/6to2/6" to="1/5to1/4"/>
    <trip id="241" depart="96.40" from="0/2to1/2" to="0/7to0/8"/>
    <trip id="242" depart="96.80" from="0/9to1/9" to="0/0to0/1"/>
    <trip id="243" depart="97.20" from="2/9to1/9" to="3/0to2/0"/>
    <trip id="244" depart="97.60" from="1/7to0/7" to="4/2toright2"/>
    <trip id="245" depart="98.00" from="0/6to1/6" to="4/4toright4"/>
    <trip id="246" depart="98.40" from="left5to0/5" to="3/7to3/6"/>
    <trip id="247" depart="98.80" from="bottom3to3/0" to="4/2to4/1"/>
    <trip id="248" depart="99.20" from="4/1to4/2" to="0/6to0/7"/>
    <trip id="249" depart="99.60" from="3/2to2/2" to="2/2to2/1"/>
</routes>
