<?xml version="1.0"?>
<!-- generated on 2017-06-18 19:26:24.193454 by $Id: route2trips.py 22929 2017-02-13 14:38:39Z behrisch $ via randomTrips.py
  options: 
-->
<routes xmlns:xsi="http://www.w3.org/2001/XMLSchema-instance" xsi:noNamespaceSchemaLocation="http://sumo.dlr.de/xsd/routes_file.xsd">
    <vType id="passenger" vClass="passenger"/>
    <trip id="veh0" depart="0.00" departLane="best" from="335828094#7" to="-12185964#0" type="passenger"/>
    <trip id="veh1" depart="2.41" departLane="best" from="12181427#0" to="12152840#1" type="passenger"/>
    <trip id="veh2" depart="4.82" departLane="best" from="41959768#3" to="365918765#0" type="passenger"/>
    <trip id="veh3" depart="7.23" departLane="best" from="62154278" to="104523987#4" type="passenger"/>
    <trip id="veh4" depart="9.64" departLane="best" from="194837494#1" to="-12190096" type="passenger"/>
    <trip id="veh5" depart="12.05" departLane="best" from="12159833#0" to="196207110#9" type="passenger"/>
    <trip id="veh6" depart="14.45" departLane="best" from="-12185964#0" to="12149082#3" type="passenger"/>
    <trip id="veh7" depart="16.86" departLane="best" from="336018361#6" to="204883011#1" type="passenger"/>
    <trip id="veh8" depart="19.27" departLane="best" from="12159833#0" to="30908229#1" type="passenger"/>
    <trip id="veh9" depart="21.68" departLane="best" from="42706545" to="-12153942#1" type="passenger"/>
    <trip id="veh10" depart="24.09" departLane="best" from="424830812#6" to="387162762#10" type="passenger"/>
    <trip id="veh11" depart="26.50" departLane="best" from="12204493#0" to="12116067#2" type="passenger"/>
    <trip id="veh12" depart="28.91" departLane="best" from="62203286#2" to="12182905#4" type="passenger"/>
    <trip id="veh13" depart="31.32" departLane="best" from="104524010#0" to="104524024#1" type="passenger"/>
    <trip id="veh14" depart="33.73" departLane="best" from="49960966#9" to="32130889" type="passenger"/>
    <trip id="veh15" depart="36.14" departLane="best" from="204883041" to="63060589#7" type="passenger"/>
    <trip id="veh16" depart="38.54" departLane="best" from="170020472#3" to="206643340#2" type="passenger"/>
    <trip id="veh17" depart="40.95" departLane="best" from="486653634#0" to="333012806#0" type="passenger"/>
    <trip id="veh18" depart="43.36" departLane="best" from="60185772" to="30908180#0" type="passenger"/>
    <trip id="veh19" depart="45.77" departLane="best" from="387422116#10" to="-196393940#1" type="passenger"/>
    <trip id="veh20" depart="48.18" departLane="best" from="12160575#2" to="12166069#2" type="passenger"/>
    <trip id="veh21" depart="50.59" departLane="best" from="-62203073#2" to="12158274#1" type="passenger"/>
    <trip id="veh22" depart="53.00" departLane="best" from="104524034#3" to="121643859#5" type="passenger"/>
    <trip id="veh23" depart="55.41" departLane="best" from="335828094#4-AddedOnRampEdge" to="12202013" type="passenger"/>
    <trip id="veh24" depart="57.82" departLane="best" from="167194800#0" to="12150213#14" type="passenger"/>
    <trip id="veh25" depart="60.23" departLane="best" from="12174752#3" to="62203285#14" type="passenger"/>
    <trip id="veh26" depart="62.64" departLane="best" from="12149082#0" to="404615586" type="passenger"/>
    <trip id="veh27" depart="65.04" departLane="best" from="12142551#0" to="12204493#2" type="passenger"/>
    <trip id="veh28" depart="67.45" departLane="best" from="63060733#5" to="335828094#3" type="passenger"/>
    <trip id="veh29" depart="69.86" departLane="best" from="288494849#5" to="377654463#2" type="passenger"/>
    <trip id="veh30" depart="72.27" departLane="best" from="49960966#4" to="424829493#1" type="passenger"/>
    <trip id="veh31" depart="74.68" departLane="best" from="121643794" to="-12202010" type="passenger"/>
    <trip id="veh32" depart="77.09" departLane="best" from="12198369#0" to="121643795" type="passenger"/>
    <trip id="veh33" depart="79.50" departLane="best" from="12158602#8" to="62203285#3" type="passenger"/>
    <trip id="veh34" depart="81.91" departLane="best" from="62153734#0" to="12174752#1" type="passenger"/>
    <trip id="veh35" depart="84.32" departLane="best" from="338900945#13" to="127806930" type="passenger"/>
    <trip id="veh36" depart="86.73" departLane="best" from="62202366#1" to="194837494#12" type="passenger"/>
    <trip id="veh37" depart="89.14" departLane="best" from="12174752#1" to="12158602#5" type="passenger"/>
    <trip id="veh38" depart="91.54" departLane="best" from="30908088" to="12159833#22" type="passenger"/>
    <trip id="veh39" depart="93.95" departLane="best" from="30908343#0" to="62202366#0" type="passenger"/>
    <trip id="veh40" depart="96.36" departLane="best" from="170020502#0" to="12150213#9" type="passenger"/>
    <trip id="veh41" depart="98.77" departLane="best" from="87326584#0" to="196355317#0" type="passenger"/>
    <trip id="veh43" depart="103.59" departLane="best" from="104526289#1" to="334903476#10" type="passenger"/>
    <trip id="veh44" depart="106.00" departLane="best" from="424829495#3" to="170020486#3" type="passenger"/>
    <trip id="veh45" depart="108.41" departLane="best" from="-59676508" to="12205355" type="passenger"/>
    <trip id="veh46" depart="110.82" departLane="best" from="63063024#1" to="196355331#3" type="passenger"/>
    <trip id="veh49" depart="118.04" departLane="best" from="387162758#3" to="196393940#1" type="passenger"/>
    <trip id="veh50" depart="120.45" departLane="best" from="12174752#3" to="335828094#4" type="passenger"/>
    <trip id="veh52" depart="125.27" departLane="best" from="195815843#0" to="62203287#4" type="passenger"/>
    <trip id="veh53" depart="127.68" departLane="best" from="62153734#0" to="12160575#0" type="passenger"/>
    <trip id="veh54" depart="130.09" departLane="best" from="12186741#0" to="335828094#2" type="passenger"/>
    <trip id="veh55" depart="132.50" departLane="best" from="334310264#0" to="12116067#2" type="passenger"/>
    <trip id="veh56" depart="134.91" departLane="best" from="424804082#2" to="196393940#1" type="passenger"/>
    <trip id="veh57" depart="137.32" departLane="best" from="424829491" to="196355331#4" type="passenger"/>
    <trip id="veh59" depart="142.13" departLane="best" from="-12169047" to="62203073#1" type="passenger"/>
    <trip id="veh60" depart="144.54" departLane="best" from="62153734#0" to="49960966#17" type="passenger"/>
    <trip id="veh61" depart="146.95" departLane="best" from="12189624#3" to="-387422123#3" type="passenger"/>
    <trip id="veh62" depart="149.36" departLane="best" from="62153734#0" to="62203285#9" type="passenger"/>
    <trip id="veh63" depart="151.77" departLane="best" from="-87326584#1" to="195815859#13" type="passenger"/>
    <trip id="veh64" depart="154.18" departLane="best" from="-60185767#3" to="424807262" type="passenger"/>
    <trip id="veh65" depart="156.59" departLane="best" from="196207110#0" to="206643340#2" type="passenger"/>
    <trip id="veh67" depart="161.41" departLane="best" from="194837494#11" to="12150213#14" type="passenger"/>
    <trip id="veh68" depart="163.82" departLane="best" from="206999066#0" to="404615586" type="passenger"/>
    <trip id="veh69" depart="166.22" departLane="best" from="12158274#5" to="12169047" type="passenger"/>
    <trip id="veh70" depart="168.63" departLane="best" from="63063024#0" to="335853588" type="passenger"/>
    <trip id="veh71" depart="171.04" departLane="best" from="195656293#0" to="196355317#8" type="passenger"/>
    <trip id="veh72" depart="173.45" departLane="best" from="12112698#0" to="12152840#1" type="passenger"/>
    <trip id="veh73" depart="175.86" departLane="best" from="12204352#0" to="30908217#4" type="passenger"/>
    <trip id="veh75" depart="180.68" departLane="best" from="-60185767#5" to="334903476#13" type="passenger"/>
    <trip id="veh76" depart="183.09" departLane="best" from="121643794" to="62202553#0" type="passenger"/>
    <trip id="veh77" depart="185.50" departLane="best" from="60185772" to="-60185767#3" type="passenger"/>
    <trip id="veh78" depart="187.91" departLane="best" from="121643866" to="338900945#17" type="passenger"/>
    <trip id="veh79" depart="190.32" departLane="best" from="12159449#2" to="12111986" type="passenger"/>
    <trip id="veh80" depart="192.72" departLane="best" from="62202916#0" to="288494849#5" type="passenger"/>
    <trip id="veh81" depart="195.13" departLane="best" from="195815883#1" to="424829496#3" type="passenger"/>
    <trip id="veh82" depart="197.54" departLane="best" from="424830812#8" to="12142551#1" type="passenger"/>
    <trip id="veh83" depart="199.95" departLane="best" from="404615578" to="338900945#6" type="passenger"/>
    <trip id="veh84" depart="202.36" departLane="best" from="63060731#1" to="104524034#0" type="passenger"/>
    <trip id="veh85" depart="204.77" departLane="best" from="170020502#3" to="12185932#1" type="passenger"/>
    <trip id="veh86" depart="207.18" departLane="best" from="60185772" to="12158602#7" type="passenger"/>
    <trip id="veh87" depart="209.59" departLane="best" from="194837494#1" to="121643860" type="passenger"/>
    <trip id="veh88" depart="212.00" departLane="best" from="12166689#1" to="62202577#4" type="passenger"/>
    <trip id="veh89" depart="214.41" departLane="best" from="288494848#0" to="-333316188" type="passenger"/>
    <trip id="veh90" depart="216.81" departLane="best" from="92484919" to="49960966#5" type="passenger"/>
    <trip id="veh91" depart="219.22" departLane="best" from="63060589#0" to="62202577#4" type="passenger"/>
    <trip id="veh92" depart="221.63" departLane="best" from="196207110#7" to="12150213#3" type="passenger"/>
    <trip id="veh93" depart="224.04" departLane="best" from="170020472#3" to="63060733#5" type="passenger"/>
    <trip id="veh94" depart="226.45" departLane="best" from="12174752#2" to="424829496#2" type="passenger"/>
    <trip id="veh95" depart="228.86" departLane="best" from="195815859#0" to="170020486#4" type="passenger"/>
    <trip id="veh96" depart="231.27" departLane="best" from="62203287#0" to="63063024#0" type="passenger"/>
    <trip id="veh97" depart="233.68" departLane="best" from="288494849#4" to="387422123#3" type="passenger"/>
    <trip id="veh98" depart="236.09" departLane="best" from="12139665#3" to="12167190#10" type="passenger"/>
    <trip id="veh99" depart="238.50" departLane="best" from="63060589#0" to="30908207#1" type="passenger"/>
    <trip id="veh100" depart="240.91" departLane="best" from="206999066#3" to="424804079" type="passenger"/>
    <trip id="veh101" depart="243.31" departLane="best" from="-424804076#1" to="30908215" type="passenger"/>
    <trip id="veh102" depart="245.72" departLane="best" from="196355317#5" to="60185767#5" type="passenger"/>
    <trip id="veh103" depart="248.13" departLane="best" from="12139665#6" to="63060588" type="passenger"/>
    <trip id="veh104" depart="250.54" departLane="best" from="-62203073#2" to="12142491#1" type="passenger"/>
    <trip id="veh105" depart="252.95" departLane="best" from="32163457#3" to="338900945#9" type="passenger"/>
    <trip id="veh106" depart="255.36" departLane="best" from="121643859#4" to="12109553#1" type="passenger"/>
    <trip id="veh107" depart="257.77" departLane="best" from="62154274#8" to="12158602#5" type="passenger"/>
    <trip id="veh108" depart="260.18" departLane="best" from="32163457#2" to="333012806#1" type="passenger"/>
    <trip id="veh109" depart="262.59" departLane="best" from="183071189" to="30908215" type="passenger"/>
    <trip id="veh110" depart="265.00" departLane="best" from="196355331#3" to="62203285#11" type="passenger"/>
    <trip id="veh111" depart="267.41" departLane="best" from="121643866-AddedOffRampEdge" to="127806930" type="passenger"/>
    <trip id="veh112" depart="269.81" departLane="best" from="386984972#0" to="12167190#4" type="passenger"/>
    <trip id="veh113" depart="272.22" departLane="best" from="12198369#1" to="424804081#1" type="passenger"/>
    <trip id="veh114" depart="274.63" departLane="best" from="-62202575#1" to="194837494#12" type="passenger"/>
    <trip id="veh115" depart="277.04" departLane="best" from="87326584#1" to="63063024#0" type="passenger"/>
    <trip id="veh116" depart="279.45" departLane="best" from="-62202575#1" to="12150213#3" type="passenger"/>
    <trip id="veh117" depart="281.86" departLane="best" from="12174752#2" to="62203285#0" type="passenger"/>
    <trip id="veh118" depart="284.27" departLane="best" from="62153734#2" to="62202003#3" type="passenger"/>
    <trip id="veh119" depart="286.68" departLane="best" from="167194800#0" to="12118038#1" type="passenger"/>
    <trip id="veh120" depart="289.09" departLane="best" from="49960966#11" to="387162765#1" type="passenger"/>
    <trip id="veh121" depart="291.50" departLane="best" from="334310264#2" to="63060733#7" type="passenger"/>
    <trip id="veh122" depart="293.90" departLane="best" from="338900945#11" to="-12159449#1" type="passenger"/>
    <trip id="veh123" depart="296.31" departLane="best" from="42706664#13" to="12167190#3" type="passenger"/>
    <trip id="veh124" depart="298.72" departLane="best" from="338900945#6" to="62203285#14" type="passenger"/>
    <trip id="veh126" depart="303.54" departLane="best" from="104526272#0" to="206643340#2" type="passenger"/>
    <trip id="veh127" depart="305.95" departLane="best" from="12180158#1" to="32163457#0" type="passenger"/>
    <trip id="veh128" depart="308.36" departLane="best" from="39227937" to="12150213#10" type="passenger"/>
    <trip id="veh129" depart="310.77" departLane="best" from="335828094#3" to="12160575#0" type="passenger"/>
    <trip id="veh130" depart="313.18" departLane="best" from="196207110#9" to="62202553#0" type="passenger"/>
    <trip id="veh131" depart="315.59" departLane="best" from="49960966#8" to="104523987#6" type="passenger"/>
    <trip id="veh132" depart="318.00" departLane="best" from="194837494#11" to="121643859#4" type="passenger"/>
    <trip id="veh133" depart="320.40" departLane="best" from="-12125219#1" to="424829492#1" type="passenger"/>
    <trip id="veh134" depart="322.81" departLane="best" from="335828094#5" to="12159833#21" type="passenger"/>
    <trip id="veh135" depart="325.22" departLane="best" from="41959768#8" to="206643340#2" type="passenger"/>
    <trip id="veh136" depart="327.63" departLane="best" from="194837494#15" to="-12165092" type="passenger"/>
    <trip id="veh137" depart="330.04" departLane="best" from="-62203073#0" to="62202005" type="passenger"/>
    <trip id="veh138" depart="332.45" departLane="best" from="62202009" to="204883011#1" type="passenger"/>
    <trip id="veh139" depart="334.86" departLane="best" from="12139665#1" to="12111563" type="passenger"/>
    <trip id="veh142" depart="342.09" departLane="best" from="62202003#4" to="12150213#14" type="passenger"/>
    <trip id="veh143" depart="344.49" departLane="best" from="12166689#1" to="104524034#5" type="passenger"/>
    <trip id="veh144" depart="346.90" departLane="best" from="424829492#0" to="62202009" type="passenger"/>
    <trip id="veh145" depart="349.31" departLane="best" from="173543405#0" to="333012806#2" type="passenger"/>
    <trip id="veh146" depart="351.72" departLane="best" from="12139665#3" to="62203073#2" type="passenger"/>
    <trip id="veh147" depart="354.13" departLane="best" from="62153265#0" to="63060593" type="passenger"/>
    <trip id="veh148" depart="356.54" departLane="best" from="42706630" to="62202003#6" type="passenger"/>
    <trip id="veh149" depart="358.95" departLane="best" from="-12174752#2" to="41959768#6" type="passenger"/>
    <trip id="veh150" depart="361.36" departLane="best" from="12203864" to="62203076#0" type="passenger"/>
    <trip id="veh151" depart="363.77" departLane="best" from="424830812#2" to="62154274#0" type="passenger"/>
    <trip id="veh153" depart="368.59" departLane="best" from="424829493#2" to="104524034#8" type="passenger"/>
    <trip id="veh154" depart="370.99" departLane="best" from="62153268" to="61294556#0" type="passenger"/>
    <trip id="veh155" depart="373.40" departLane="best" from="12159833#19" to="450844975" type="passenger"/>
    <trip id="veh156" depart="375.81" departLane="best" from="195815859#10" to="12167191#4" type="passenger"/>
    <trip id="veh157" depart="378.22" departLane="best" from="424829496#3" to="12153942#1" type="passenger"/>
    <trip id="veh158" depart="380.63" departLane="best" from="-12174752#1" to="12142551#5" type="passenger"/>
    <trip id="veh159" depart="383.04" departLane="best" from="12202028#1" to="62154274#1" type="passenger"/>
    <trip id="veh160" depart="385.45" departLane="best" from="335853587#0" to="137469643#7" type="passenger"/>
    <trip id="veh161" depart="387.86" departLane="best" from="63060730#0" to="196393940#1" type="passenger"/>
    <trip id="veh162" depart="390.27" departLane="best" from="62202916#0" to="12109553#0" type="passenger"/>
    <trip id="veh163" depart="392.68" departLane="best" from="63060589#11" to="12139665#5" type="passenger"/>
    <trip id="veh164" depart="395.09" departLane="best" from="62203287#5" to="12160575#2" type="passenger"/>
    <trip id="veh165" depart="397.49" departLane="best" from="104526289#0" to="170020502#5" type="passenger"/>
    <trip id="veh166" depart="399.90" departLane="best" from="404615577" to="12171198#1" type="passenger"/>
    <trip id="veh167" depart="402.31" departLane="best" from="333012806#0" to="196355317#11" type="passenger"/>
    <trip id="veh168" depart="404.72" departLane="best" from="170020486#1" to="30908170" type="passenger"/>
    <trip id="veh169" depart="407.13" departLane="best" from="12167190#5" to="387422116#2" type="passenger"/>
    <trip id="veh170" depart="409.54" departLane="best" from="-12125219#0" to="62202577#4" type="passenger"/>
    <trip id="veh172" depart="414.36" departLane="best" from="41959774#0" to="338900945#3" type="passenger"/>
    <trip id="veh173" depart="416.77" departLane="best" from="137469643#8" to="-60185767#2" type="passenger"/>
    <trip id="veh174" depart="419.18" departLane="best" from="338900945#6" to="12181427#6" type="passenger"/>
    <trip id="veh175" depart="421.58" departLane="best" from="12197696" to="60185767#0" type="passenger"/>
    <trip id="veh176" depart="423.99" departLane="best" from="394179820#0" to="12167190#4" type="passenger"/>
    <trip id="veh177" depart="426.40" departLane="best" from="12190096" to="170020472#1" type="passenger"/>
    <trip id="veh178" depart="428.81" departLane="best" from="170020502#3" to="12166689#1" type="passenger"/>
    <trip id="veh179" depart="431.22" departLane="best" from="12113129#0" to="170020486#1" type="passenger"/>
    <trip id="veh180" depart="433.63" departLane="best" from="62203073#0" to="365918765#1" type="passenger"/>
    <trip id="veh181" depart="436.04" departLane="best" from="62202005" to="333012805#7" type="passenger"/>
    <trip id="veh182" depart="438.45" departLane="best" from="12186741#4" to="206643340#0" type="passenger"/>
    <trip id="veh184" depart="443.27" departLane="best" from="338900945#12" to="194837494#4" type="passenger"/>
    <trip id="veh185" depart="445.68" departLane="best" from="195656293#0" to="12150213#3" type="passenger"/>
    <trip id="veh186" depart="448.08" departLane="best" from="195815883#2" to="62202366#2" type="passenger"/>
    <trip id="veh187" depart="450.49" departLane="best" from="424829497" to="12139665#13" type="passenger"/>
    <trip id="veh188" depart="452.90" departLane="best" from="-87326584#0" to="196355317#6" type="passenger"/>
    <trip id="veh189" depart="455.31" departLane="best" from="335828094#2" to="12182905#2" type="passenger"/>
    <trip id="veh190" depart="457.72" departLane="best" from="42706664#2" to="424804081#1" type="passenger"/>
    <trip id="veh191" depart="460.13" departLane="best" from="386984972#1" to="12152840#1" type="passenger"/>
    <trip id="veh192" depart="462.54" departLane="best" from="12158274#3" to="-12174752#3" type="passenger"/>
    <trip id="veh193" depart="464.95" departLane="best" from="12166069#0" to="195656295#2" type="passenger"/>
    <trip id="veh194" depart="467.36" departLane="best" from="50714929" to="-60185767#5" type="passenger"/>
    <trip id="veh195" depart="469.77" departLane="best" from="12156408#0" to="387162762#0" type="passenger"/>
    <trip id="veh196" depart="472.17" departLane="best" from="196355310#1" to="12158602#2" type="passenger"/>
    <trip id="veh197" depart="474.58" departLane="best" from="338900945#13" to="-12153942#0" type="passenger"/>
    <trip id="veh198" depart="476.99" departLane="best" from="104526272#0" to="170020486#6" type="passenger"/>
    <trip id="veh199" depart="479.40" departLane="best" from="12149082#6" to="62203287#8" type="passenger"/>
    <trip id="veh200" depart="481.81" departLane="best" from="196355331#0" to="-262962060" type="passenger"/>
    <trip id="veh201" depart="484.22" departLane="best" from="12166689#0" to="60185767#0" type="passenger"/>
    <trip id="veh202" depart="486.63" departLane="best" from="195815859#0" to="42706648#1" type="passenger"/>
    <trip id="veh204" depart="491.45" departLane="best" from="62154277" to="333012805#4" type="passenger"/>
    <trip id="veh205" depart="493.86" departLane="best" from="394179820#0" to="196207110#9" type="passenger"/>
    <trip id="veh206" depart="496.27" departLane="best" from="486653634#1" to="206643340#0" type="passenger"/>
    <trip id="veh207" depart="498.67" departLane="best" from="62202003#2" to="424804074#2" type="passenger"/>
    <trip id="veh208" depart="501.08" departLane="best" from="195815883#3" to="12159833#18" type="passenger"/>
    <trip id="veh209" depart="503.49" departLane="best" from="12166287#0" to="335828093#1" type="passenger"/>
    <trip id="veh210" depart="505.90" departLane="best" from="424804094" to="196355327#1" type="passenger"/>
    <trip id="veh211" depart="508.31" departLane="best" from="334903476#16" to="121643859#1" type="passenger"/>
    <trip id="veh212" depart="510.72" departLane="best" from="-62203073#2" to="121643866-AddedOffRampEdge" type="passenger"/>
    <trip id="veh213" depart="513.13" departLane="best" from="12180158#0" to="12177329#3" type="passenger"/>
    <trip id="veh214" depart="515.54" departLane="best" from="121643859#0" to="387162758#7" type="passenger"/>
    <trip id="veh215" depart="517.95" departLane="best" from="387422116#3" to="-424804076#1" type="passenger"/>
    <trip id="veh216" depart="520.36" departLane="best" from="173543405#0" to="198495281#1" type="passenger"/>
    <trip id="veh217" depart="522.77" departLane="best" from="173544047#4" to="12150213#13" type="passenger"/>
    <trip id="veh218" depart="525.17" departLane="best" from="30908343#0" to="387162758#9" type="passenger"/>
    <trip id="veh219" depart="527.58" departLane="best" from="60185767#5" to="424807268#1" type="passenger"/>
    <trip id="veh220" depart="529.99" departLane="best" from="134099367#0" to="424804082#2" type="passenger"/>
    <trip id="veh221" depart="532.40" departLane="best" from="60185767#2" to="62203287#4" type="passenger"/>
    <trip id="veh222" depart="534.81" departLane="best" from="180987236" to="424804079" type="passenger"/>
    <trip id="veh223" depart="537.22" departLane="best" from="288494847#0" to="32130889" type="passenger"/>
    <trip id="veh224" depart="539.63" departLane="best" from="12159833#18" to="12150213#9" type="passenger"/>
    <trip id="veh225" depart="542.04" departLane="best" from="194837494#8" to="-12189884#2" type="passenger"/>
    <trip id="veh226" depart="544.45" departLane="best" from="12203864" to="377654463#0" type="passenger"/>
    <trip id="veh227" depart="546.86" departLane="best" from="170020502#5" to="12139665#0" type="passenger"/>
    <trip id="veh228" depart="549.26" departLane="best" from="195815859#6" to="12111563" type="passenger"/>
    <trip id="veh229" depart="551.67" departLane="best" from="170020500#0" to="288494847#4" type="passenger"/>
    <trip id="veh230" depart="554.08" departLane="best" from="-12185964#1" to="335828094#5" type="passenger"/>
    <trip id="veh232" depart="558.90" departLane="best" from="-365918765#1" to="12204493#1" type="passenger"/>
    <trip id="veh233" depart="561.31" departLane="best" from="12159449#0" to="12181427#2" type="passenger"/>
    <trip id="veh234" depart="563.72" departLane="best" from="424804082#1" to="12204493#1" type="passenger"/>
    <trip id="veh235" depart="566.13" departLane="best" from="424804076#0" to="49960966#18" type="passenger"/>
    <trip id="veh236" depart="568.54" departLane="best" from="12167190#3" to="-87326584#1" type="passenger"/>
    <trip id="veh237" depart="570.95" departLane="best" from="-12169047" to="196393940#1" type="passenger"/>
    <trip id="veh238" depart="573.36" departLane="best" from="92484919" to="12189624#2" type="passenger"/>
    <trip id="veh239" depart="575.76" departLane="best" from="336018361#6" to="424829495#2" type="passenger"/>
    <trip id="veh241" depart="580.58" departLane="best" from="62203285#3" to="12149082#3" type="passenger"/>
    <trip id="veh242" depart="582.99" departLane="best" from="-12169047" to="12116067#2" type="passenger"/>
    <trip id="veh243" depart="585.40" departLane="best" from="12112698#15" to="338900945#2" type="passenger"/>
    <trip id="veh244" depart="587.81" departLane="best" from="30908180#0" to="12150213#8" type="passenger"/>
    <trip id="veh245" depart="590.22" departLane="best" from="387422116#0" to="424829489#0" type="passenger"/>
    <trip id="veh246" depart="592.63" departLane="best" from="12142551#5" to="32163457#2" type="passenger"/>
    <trip id="veh247" depart="595.04" departLane="best" from="424804076#0" to="104526289#1" type="passenger"/>
    <trip id="veh248" depart="597.45" departLane="best" from="42706664#3" to="63060588" type="passenger"/>
    <trip id="veh249" depart="599.85" departLane="best" from="104526272#1" to="-12185964#1" type="passenger"/>
    <trip id="veh250" depart="602.26" departLane="best" from="12197696" to="365918765#1" type="passenger"/>
    <trip id="veh251" depart="604.67" departLane="best" from="62203287#0" to="134099367#1" type="passenger"/>
    <trip id="veh252" depart="607.08" departLane="best" from="387422123#3" to="-62202668#0" type="passenger"/>
    <trip id="veh253" depart="609.49" departLane="best" from="104524034#4" to="424829492#2" type="passenger"/>
    <trip id="veh254" depart="611.90" departLane="best" from="50715120" to="32130889" type="passenger"/>
    <trip id="veh255" depart="614.31" departLane="best" from="12112698#0" to="63060733#4" type="passenger"/>
    <trip id="veh256" depart="616.72" departLane="best" from="424829492#3" to="12186858" type="passenger"/>
    <trip id="veh257" depart="619.13" departLane="best" from="194837494#16" to="12202028#0" type="passenger"/>
    <trip id="veh258" depart="621.54" departLane="best" from="196355317#8" to="12185932#4" type="passenger"/>
    <trip id="veh259" depart="623.95" departLane="best" from="50714929" to="486653634#0" type="passenger"/>
    <trip id="veh260" depart="626.35" departLane="best" from="104526264#1" to="63060588" type="passenger"/>
    <trip id="veh261" depart="628.76" departLane="best" from="335828094#4-AddedOnRampEdge" to="49960966#14" type="passenger"/>
    <trip id="veh262" depart="631.17" departLane="best" from="387422116#4" to="170020502#6" type="passenger"/>
    <trip id="veh263" depart="633.58" departLane="best" from="41959768#0" to="63060589#0" type="passenger"/>
    <trip id="veh264" depart="635.99" departLane="best" from="12177329#3" to="42706664#3" type="passenger"/>
    <trip id="veh266" depart="640.81" departLane="best" from="194837494#8" to="41959768#1" type="passenger"/>
    <trip id="veh267" depart="643.22" departLane="best" from="12177329#2" to="60185767#4" type="passenger"/>
    <trip id="veh268" depart="645.63" departLane="best" from="486653634#1" to="104523987#4" type="passenger"/>
    <trip id="veh269" depart="648.04" departLane="best" from="62153734#2" to="12158602#2" type="passenger"/>
    <trip id="veh270" depart="650.44" departLane="best" from="195815859#3" to="333012805#2" type="passenger"/>
    <trip id="veh271" depart="652.85" departLane="best" from="170020472#3" to="-12189884#2" type="passenger"/>
    <trip id="veh272" depart="655.26" departLane="best" from="50715120" to="12139665#9" type="passenger"/>
    <trip id="veh273" depart="657.67" departLane="best" from="12159449#0" to="424830812#9" type="passenger"/>
    <trip id="veh274" depart="660.08" departLane="best" from="387422116#0" to="121643859#3" type="passenger"/>
    <trip id="veh275" depart="662.49" departLane="best" from="-12153942#0" to="62203286#0" type="passenger"/>
    <trip id="veh276" depart="664.90" departLane="best" from="-87326584#1" to="39227937" type="passenger"/>
    <trip id="veh277" depart="667.31" departLane="best" from="196207110#9" to="424804095#1" type="passenger"/>
    <trip id="veh278" depart="669.72" departLane="best" from="387162762#11" to="335828094#8" type="passenger"/>
    <trip id="veh279" depart="672.13" departLane="best" from="196355310#0" to="424830812#4" type="passenger"/>
    <trip id="veh280" depart="674.54" departLane="best" from="104524010#0" to="12152840#1" type="passenger"/>
    <trip id="veh281" depart="676.94" departLane="best" from="387162762#3" to="12168559" type="passenger"/>
    <trip id="veh282" depart="679.35" departLane="best" from="30908343#0" to="195656295#0" type="passenger"/>
    <trip id="veh283" depart="681.76" departLane="best" from="198495281#0" to="170020486#6" type="passenger"/>
    <trip id="veh284" depart="684.17" departLane="best" from="424804074#1" to="12181427#6" type="passenger"/>
    <trip id="veh285" depart="686.58" departLane="best" from="387422116#0" to="121643796" type="passenger"/>
    <trip id="veh286" depart="688.99" departLane="best" from="12167190#2" to="12109553#1" type="passenger"/>
    <trip id="veh287" depart="691.40" departLane="best" from="12153942#0" to="12109553#1" type="passenger"/>