<?xml version="1.0" encoding="UTF-8"?>

<!-- generated on 06/18/17 19:26:21 by SUMO netconvert Version 0.29.0
<?xml version="1.0" encoding="UTF-8"?>

<configuration xmlns:xsi="http://www.w3.org/2001/XMLSchema-instance" xsi:noNamespaceSchemaLocation="http://sumo.dlr.de/xsd/netconvertConfiguration.xsd">

    <input>
        <type-files value="C:\Users\Jacob\src\sumo-0.29.0\data/typemap/osmNetconvert.typ.xml"/>
        <osm-files value="osm_bbox.osm.xml"/>
    </input>

    <output>
        <output-file value="C:/Users/Jacob/src/sumo-0.29.0/tools/2017-06-18-19-26-16/osm.net.xml"/>
        <output.street-names value="true"/>
        <output.original-names value="true"/>
    </output>

    <projection>
        <proj.utm value="true"/>
    </projection>

    <tls_building>
        <tls.discard-simple value="true"/>
        <tls.join value="true"/>
        <tls.guess-signals value="true"/>
    </tls_building>

    <ramp_guessing>
        <ramps.guess value="true"/>
    </ramp_guessing>

    <processing>
        <geometry.remove value="true"/>
        <roundabouts.guess value="true"/>
        <junctions.join value="true"/>
        <junctions.corner-detail value="5"/>
    </processing>

    <report>
        <verbose value="true"/>
    </report>

</configuration>
-->

<net version="0.27" junctionCornerDetail="5" xmlns:xsi="http://www.w3.org/2001/XMLSchema-instance" xsi:noNamespaceSchemaLocation="http://sumo.dlr.de/xsd/net_file.xsd">

    <location netOffset="-483895.46,-4417353.44" convBoundary="0.00,0.00,4028.40,12598.76" origBoundary="-75.188544,39.906133,-75.141375,40.019681" projParameter="+proj=utm +zone=18 +ellps=WGS84 +datum=WGS84 +units=m +no_defs"/>

    <type id="highway.bridleway" priority="1" numLanes="1" speed="2.78" allow="pedestrian" oneway="1" width="2.00"/>
    <type id="highway.bus_guideway" priority="1" numLanes="1" speed="8.33" allow="bus" oneway="1"/>
    <type id="highway.cycleway" priority="1" numLanes="1" speed="5.56" allow="bicycle" oneway="0" width="1.00"/>
    <type id="highway.footway" priority="1" numLanes="1" speed="2.78" allow="pedestrian" oneway="1" width="2.00"/>
    <type id="highway.ford" priority="1" numLanes="1" speed="2.78" allow="army" oneway="0"/>
    <type id="highway.living_street" priority="3" numLanes="1" speed="2.78" disallow="tram rail_urban rail rail_electric ship" oneway="0"/>
    <type id="highway.motorway" priority="13" numLanes="2" speed="44.44" allow="private emergency authority army vip passenger hov taxi bus coach delivery truck trailer motorcycle evehicle custom1 custom2" oneway="1"/>
    <type id="highway.motorway_link" priority="12" numLanes="1" speed="22.22" allow="private emergency authority army vip passenger hov taxi bus coach delivery truck trailer motorcycle evehicle custom1 custom2" oneway="1"/>
    <type id="highway.path" priority="1" numLanes="1" speed="2.78" allow="bicycle pedestrian" oneway="1" width="2.00"/>
    <type id="highway.pedestrian" priority="1" numLanes="1" speed="2.78" allow="pedestrian" oneway="1" width="2.00"/>
    <type id="highway.primary" priority="9" numLanes="2" speed="27.78" disallow="tram rail_urban rail rail_electric ship" oneway="0"/>
    <type id="highway.primary_link" priority="8" numLanes="1" speed="22.22" disallow="tram rail_urban rail rail_electric ship" oneway="0"/>
    <type id="highway.raceway" priority="14" numLanes="2" speed="83.33" allow="vip" oneway="0"/>
    <type id="highway.residential" priority="4" numLanes="1" speed="13.89" disallow="tram rail_urban rail rail_electric ship" oneway="0"/>
    <type id="highway.secondary" priority="7" numLanes="2" speed="27.78" disallow="tram rail_urban rail rail_electric ship" oneway="0"/>
    <type id="highway.secondary_link" priority="6" numLanes="1" speed="22.22" disallow="tram rail_urban rail rail_electric ship" oneway="0"/>
    <type id="highway.service" priority="2" numLanes="1" speed="5.56" allow="delivery bicycle pedestrian" oneway="0"/>
    <type id="highway.services" priority="1" numLanes="1" speed="8.33" disallow="tram rail_urban rail rail_electric ship" oneway="0"/>
    <type id="highway.stairs" priority="1" numLanes="1" speed="1.39" allow="pedestrian" oneway="1" width="2.00"/>
    <type id="highway.step" priority="1" numLanes="1" speed="1.39" allow="pedestrian" oneway="1" width="2.00"/>
    <type id="highway.steps" priority="1" numLanes="1" speed="1.39" allow="pedestrian" oneway="1" width="2.00"/>
    <type id="highway.tertiary" priority="6" numLanes="1" speed="22.22" disallow="tram rail_urban rail rail_electric ship" oneway="0"/>
    <type id="highway.tertiary_link" priority="5" numLanes="1" speed="22.22" disallow="tram rail_urban rail rail_electric ship" oneway="0"/>
    <type id="highway.track" priority="1" numLanes="1" speed="5.56" disallow="tram rail_urban rail rail_electric ship" oneway="0"/>
    <type id="highway.trunk" priority="11" numLanes="2" speed="27.78" disallow="tram rail_urban rail rail_electric bicycle pedestrian ship" oneway="0"/>
    <type id="highway.trunk_link" priority="10" numLanes="1" speed="22.22" disallow="tram rail_urban rail rail_electric bicycle pedestrian ship" oneway="0"/>
    <type id="highway.unclassified" priority="5" numLanes="1" speed="13.89" disallow="tram rail_urban rail rail_electric ship" oneway="0"/>
    <type id="highway.unsurfaced" priority="1" numLanes="1" speed="8.33" disallow="tram rail_urban rail rail_electric ship" oneway="0"/>
    <type id="railway.light_rail" priority="15" numLanes="1" speed="27.78" allow="rail_urban" oneway="1"/>
    <type id="railway.preserved" priority="15" numLanes="1" speed="27.78" allow="rail" oneway="1"/>
    <type id="railway.rail" priority="15" numLanes="1" speed="83.33" allow="rail rail_electric" oneway="1"/>
    <type id="railway.subway" priority="15" numLanes="1" speed="27.78" allow="rail_urban" oneway="1"/>
    <type id="railway.tram" priority="15" numLanes="1" speed="13.89" allow="tram" oneway="1"/>

    <edge id=":1015357519_0" function="internal">
        <lane id=":1015357519_0_0" index="0" allow="rail_urban" speed="27.78" length="2.21" shape="2315.10,5102.21 2313.38,5100.83"/>
    </edge>
    <edge id=":1015364113_0" function="internal">
        <lane id=":1015364113_0_0" index="0" allow="rail_urban" speed="27.78" length="4.82" shape="4028.58,5184.17 4027.71,5185.37 4026.87,5185.75 4026.06,5185.31 4025.28,5184.05"/>
    </edge>
    <edge id=":1015369640_0" function="internal">
        <lane id=":1015369640_0_0" index="0" disallow="tram rail_urban rail rail_electric ship" speed="22.22" length="4.94" shape="1391.62,5771.63 1390.81,5766.75"/>
    </edge>
    <edge id=":1015369640_1" function="internal">
        <lane id=":1015369640_1_0" index="0" disallow="tram rail_urban rail rail_electric ship" speed="22.22" length="2.41" shape="1391.62,5771.63 1392.20,5770.26 1392.94,5769.70"/>
    </edge>
    <edge id=":1015369640_4" function="internal">
        <lane id=":1015369640_4_0" index="0" speed="22.22" length="2.41" shape="1392.94,5769.70 1393.82,5769.96 1394.86,5771.02"/>
    </edge>
    <edge id=":1015369640_2" function="internal">
        <lane id=":1015369640_2_0" index="0" disallow="tram rail_urban rail rail_electric ship" speed="22.22" length="4.81" shape="1394.07,5766.28 1394.86,5771.02"/>
    </edge>
    <edge id=":1015369640_3" function="internal">
        <lane id=":1015369640_3_0" index="0" disallow="tram rail_urban rail rail_electric ship" speed="22.22" length="2.41" shape="1394.07,5766.28 1393.44,5767.62 1392.68,5768.15"/>
    </edge>
    <edge id=":1015369640_5" function="internal">
        <lane id=":1015369640_5_0" index="0" speed="22.22" length="2.41" shape="1392.68,5768.15 1391.80,5767.86 1390.81,5766.75"/>
    </edge>
    <edge id=":1015383195_0" function="internal">
        <lane id=":1015383195_0_0" index="0" disallow="tram rail_urban rail rail_electric ship" speed="9.73" length="5.05" shape="2667.40,5220.03 2666.97,5218.70 2666.23,5217.82 2665.17,5217.39 2663.81,5217.41"/>
    </edge>
    <edge id=":1015383195_1" function="internal">
        <lane id=":1015383195_1_0" index="0" disallow="tram rail_urban rail rail_electric ship" speed="9.73" length="10.38" shape="2667.40,5220.03 2667.30,5217.18 2668.14,5215.00 2669.92,5213.47 2672.63,5212.61"/>
    </edge>
    <edge id=":1015383195_2" function="internal">
        <lane id=":1015383195_2_0" index="0" allow="delivery bicycle pedestrian" speed="5.56" length="4.82" shape="2667.40,5220.03 2668.00,5218.67 2668.74,5218.11 2669.62,5218.38 2670.65,5219.45"/>
    </edge>
    <edge id=":1015383195_3" function="internal">
        <lane id=":1015383195_3_0" index="0" allow="delivery bicycle pedestrian" speed="9.73" length="5.01" shape="2673.18,5215.87 2671.87,5216.28 2671.01,5217.02 2670.60,5218.07 2670.65,5219.45"/>
    </edge>
    <edge id=":1015383195_4" function="internal">
        <lane id=":1015383195_4_0" index="0" disallow="tram rail_urban rail rail_electric ship" speed="13.89" length="9.50" shape="2673.18,5215.87 2663.81,5217.41"/>
    </edge>
    <edge id=":1015383195_5" function="internal">
        <lane id=":1015383195_5_0" index="0" disallow="tram rail_urban rail rail_electric ship" speed="13.89" length="2.41" shape="2673.18,5215.87 2671.82,5215.26 2671.28,5214.51"/>
    </edge>
    <edge id=":1015383195_9" function="internal">
        <lane id=":1015383195_9_0" index="0" speed="13.89" length="2.41" shape="2671.28,5214.51 2671.55,5213.63 2672.63,5212.61"/>
    </edge>
    <edge id=":1015383195_6" function="internal">
        <lane id=":1015383195_6_0" index="0" disallow="tram rail_urban rail rail_electric ship" speed="13.89" length="9.48" shape="2663.28,5214.16 2672.63,5212.61"/>
    </edge>
    <edge id=":1015383195_7" function="internal">
        <lane id=":1015383195_7_0" index="0" allow="delivery bicycle pedestrian" speed="9.73" length="5.24" shape="2663.28,5214.16 2666.08,5214.10 2668.24,5214.97 2668.31,5215.05"/>
    </edge>
    <edge id=":1015383195_8" function="internal">
        <lane id=":1015383195_8_0" index="0" disallow="tram rail_urban rail rail_electric ship" speed="13.89" length="2.41" shape="2663.28,5214.16 2664.63,5214.77 2665.17,5215.52"/>
    </edge>
    <edge id=":1015383195_10" function="internal">
        <lane id=":1015383195_10_0" index="0" speed="9.73" length="5.08" shape="2668.31,5215.05 2669.77,5216.75 2670.65,5219.45"/>
    </edge>
    <edge id=":1015383195_11" function="internal">
        <lane id=":1015383195_11_0" index="0" speed="13.89" length="2.41" shape="2665.17,5215.52 2664.90,5216.40 2663.81,5217.41"/>
    </edge>
    <edge id=":1073734562_0" function="internal">
        <lane id=":1073734562_0_0" index="0" disallow="tram rail_urban rail rail_electric ship" speed="27.78" length="5.02" shape="3250.15,5751.70 3251.94,5756.38"/>
        <lane id=":1073734562_0_1" index="1" disallow="tram rail_urban rail rail_electric ship" speed="27.78" length="5.02" shape="3247.07,5752.87 3248.86,5757.56"/>
    </edge>
    <edge id=":109728966_0" function="internal">
        <lane id=":109728966_0_0" index="0" disallow="tram rail_urban rail rail_electric ship" speed="13.89" length="5.05" shape="1091.64,5537.13 1091.21,5535.80 1090.47,5534.92 1089.41,5534.49 1088.05,5534.51"/>
    </edge>
    <edge id=":109728966_1" function="internal">
        <lane id=":109728966_1_0" index="0" allow="delivery bicycle pedestrian" speed="5.56" length="4.82" shape="1091.64,5537.13 1092.24,5535.77 1092.98,5535.22 1093.86,5535.48 1094.89,5536.55"/>
    </edge>
    <edge id=":109728966_2" function="internal">
        <lane id=":109728966_2_0" index="0" allow="delivery bicycle pedestrian" speed="13.89" length="5.01" shape="1097.42,5532.98 1096.11,5533.39 1095.25,5534.12 1094.84,5535.18 1094.89,5536.55"/>
    </edge>
    <edge id=":109728966_3" function="internal">
        <lane id=":109728966_3_0" index="0" disallow="tram rail_urban rail rail_electric ship" speed="22.22" length="9.50" shape="1097.42,5532.98 1088.05,5534.51"/>
        <lane id=":109728966_3_1" index="1" disallow="tram rail_urban rail rail_electric ship" speed="22.22" length="9.50" shape="1096.89,5529.72 1087.52,5531.26"/>
    </edge>
    <edge id=":109728979_0" function="internal">
        <lane id=":109728979_0_0" index="0" allow="delivery bicycle pedestrian" speed="5.56" length="10.23" shape="1108.02,5593.60 1105.23,5593.64 1103.07,5592.79 1101.56,5591.03 1100.69,5588.37"/>
    </edge>
    <edge id=":109728979_1" function="internal">
        <lane id=":109728979_1_0" index="0" allow="delivery bicycle pedestrian" speed="5.56" length="4.82" shape="1108.02,5593.60 1106.67,5592.98 1106.14,5592.23 1106.42,5591.35 1107.51,5590.34"/>
    </edge>
    <edge id=":109728979_2" function="internal">
        <lane id=":109728979_2_0" index="0" allow="delivery bicycle pedestrian" speed="5.56" length="4.98" shape="1103.94,5587.80 1104.37,5589.09 1105.10,5589.95 1106.15,5590.36 1107.51,5590.34"/>
    </edge>
    <edge id=":109728979_3" function="internal">
        <lane id=":109728979_3_0" index="0" allow="delivery bicycle pedestrian" speed="5.56" length="4.82" shape="1103.94,5587.80 1103.34,5589.16 1102.60,5589.71 1101.72,5589.45 1100.69,5588.37"/>
    </edge>
    <edge id=":109734567_0" function="internal">
        <lane id=":109734567_0_0" index="0" allow="private emergency authority army vip passenger hov taxi bus coach delivery truck trailer motorcycle evehicle custom1 custom2" speed="22.22" length="2.73" shape="3310.56,5698.91 3313.12,5699.33"/>
        <lane id=":109734567_0_1" index="1" allow="private emergency authority army vip passenger hov taxi bus coach delivery truck trailer motorcycle evehicle custom1 custom2" speed="22.22" length="2.73" shape="3309.95,5702.15 3312.78,5702.62"/>
    </edge>
    <edge id=":109734567_2" function="internal">
        <lane id=":109734567_2_0" index="0" allow="private emergency authority army vip passenger hov taxi bus coach delivery truck trailer motorcycle evehicle custom1 custom2" speed="22.22" length="1.24" shape="3312.23,5695.91 3312.59,5695.91 3312.84,5695.94 3313.09,5696.00 3313.46,5696.05"/>
    </edge>
    <edge id=":109734613_0" function="internal">
        <lane id=":109734613_0_0" index="0" allow="private emergency authority army vip passenger hov taxi bus coach delivery truck trailer motorcycle evehicle custom1 custom2" speed="25.00" length="8.17" shape="3218.29,5675.50 3219.82,5676.51 3221.59,5675.91 3223.50,5675.18 3225.50,5675.81"/>
        <lane id=":109734613_0_1" index="1" allow="private emergency authority army vip passenger hov taxi bus coach delivery truck trailer motorcycle evehicle custom1 custom2" speed="25.00" length="8.17" shape="3215.46,5677.21 3217.14,5678.43 3219.04,5678.01 3221.12,5677.46 3223.29,5678.26"/>
    </edge>
    <edge id=":109734613_2" function="internal">
        <lane id=":109734613_2_0" index="0" disallow="tram rail_urban rail rail_electric ship" speed="27.78" length="6.64" shape="3212.64,5678.92 3220.41,5680.53"/>
        <lane id=":109734613_2_1" index="1" disallow="tram rail_urban rail rail_electric ship" speed="27.78" length="6.64" shape="3209.81,5680.63 3217.50,5682.09"/>
        <lane id=":109734613_2_2" index="2" disallow="tram rail_urban rail rail_electric ship" speed="27.78" length="6.64" shape="3209.81,5680.63 3210.99,5681.77 3212.25,5682.11 3213.49,5682.47 3214.59,5683.65"/>
        <lane id=":109734613_2_3" index="3" disallow="tram rail_urban rail rail_electric ship" speed="27.78" length="6.64" shape="3209.81,5680.63 3210.48,5681.93 3210.79,5682.89 3211.08,5683.87 3211.68,5685.21"/>
    </edge>
    <edge id=":109744095_0" function="internal">
        <lane id=":109744095_0_0" index="0" allow="private emergency authority army vip passenger hov taxi bus coach delivery truck trailer motorcycle evehicle custom1 custom2" speed="22.29" length="13.05" shape="1914.26,5803.08 1911.03,5803.24 1908.30,5803.33 1905.31,5803.57 1901.27,5804.17"/>
    </edge>
    <edge id=":109744095_1" function="internal">
        <lane id=":109744095_1_0" index="0" allow="private emergency authority army vip passenger hov taxi bus coach delivery truck trailer motorcycle evehicle custom1 custom2" speed="22.35" length="13.17" shape="1913.80,5799.75 1909.94,5800.29 1907.26,5800.36 1904.57,5800.43 1900.70,5800.92"/>
        <lane id=":109744095_1_1" index="1" allow="private emergency authority army vip passenger hov taxi bus coach delivery truck trailer motorcycle evehicle custom1 custom2" speed="22.35" length="13.17" shape="1913.21,5796.50 1909.35,5797.04 1906.67,5797.12 1903.99,5797.18 1900.12,5797.67"/>
    </edge>
    <edge id=":109745703_0" function="internal">
        <lane id=":109745703_0_0" index="0" disallow="tram rail_urban rail rail_electric ship" speed="25.00" length="4.28" shape="2104.25,5877.09 2104.36,5876.07 2104.38,5875.37 2104.30,5874.67 2104.12,5873.66"/>
        <lane id=":109745703_0_1" index="1" disallow="tram rail_urban rail rail_electric ship" speed="25.00" length="4.28" shape="2104.25,5877.09 2107.36,5873.04"/>
    </edge>
    <edge id=":109750950_0" function="internal">
        <lane id=":109750950_0_0" index="0" allow="delivery bicycle pedestrian" speed="9.73" length="5.03" shape="2248.64,5229.98 2247.32,5230.39 2246.46,5231.13 2246.05,5232.19 2246.11,5233.57"/>
    </edge>
    <edge id=":109750950_1" function="internal">
        <lane id=":109750950_1_0" index="0" disallow="tram rail_urban rail rail_electric ship" speed="13.89" length="4.82" shape="2248.64,5229.98 2247.28,5229.37 2246.75,5228.62 2247.02,5227.74 2248.11,5226.73"/>
    </edge>
    <edge id=":109750950_2" function="internal">
        <lane id=":109750950_2_0" index="0" disallow="tram rail_urban rail rail_electric ship" speed="13.89" length="8.06" shape="2240.23,5227.06 2242.48,5227.66 2244.10,5227.63 2245.76,5227.23 2248.11,5226.73"/>
    </edge>
    <edge id=":109750950_3" function="internal">
        <lane id=":109750950_3_0" index="0" allow="delivery bicycle pedestrian" speed="9.73" length="9.20" shape="2240.23,5227.06 2242.48,5228.14 2244.21,5229.59 2245.42,5231.39 2246.11,5233.57"/>
    </edge>
    <edge id=":109753510_0" function="internal">
        <lane id=":109753510_0_0" index="0" disallow="tram rail_urban rail rail_electric ship" speed="27.78" length="6.22" shape="2078.29,5727.75 2077.34,5721.61"/>
        <lane id=":109753510_0_1" index="1" disallow="tram rail_urban rail rail_electric ship" speed="27.78" length="6.22" shape="2081.54,5727.23 2080.60,5721.08"/>
    </edge>
    <edge id=":109753510_2" function="internal">
        <lane id=":109753510_2_0" index="0" disallow="tram rail_urban rail rail_electric ship" speed="25.00" length="5.01" shape="2071.51,5725.69 2072.83,5725.29 2073.69,5724.56 2074.11,5723.51 2074.09,5722.14"/>
    </edge>
    <edge id=":109753552_0" function="internal">
        <lane id=":109753552_0_0" index="0" allow="private emergency authority army vip passenger hov taxi bus coach delivery truck trailer motorcycle evehicle custom1 custom2" speed="22.22" length="7.58" shape="2045.80,5723.87 2051.09,5729.30"/>
    </edge>
    <edge id=":109753552_1" function="internal">
        <lane id=":109753552_1_0" index="0" allow="private emergency authority army vip passenger hov taxi bus coach delivery truck trailer motorcycle evehicle custom1 custom2" speed="22.22" length="61.64" shape="2046.82,5727.01 1988.38,5745.94"/>
        <lane id=":109753552_1_1" index="1" allow="private emergency authority army vip passenger hov taxi bus coach delivery truck trailer motorcycle evehicle custom1 custom2" speed="22.22" length="61.64" shape="2047.84,5730.15 1988.99,5749.18"/>
    </edge>
    <edge id=":109755755_0" function="internal">
        <lane id=":109755755_0_0" index="0" allow="private emergency authority army vip passenger hov taxi bus coach delivery truck trailer motorcycle evehicle custom1 custom2" speed="22.29" length="14.39" shape="2139.53,5764.46 2135.05,5765.33 2131.74,5766.27 2128.87,5767.26 2125.68,5768.30"/>
    </edge>
    <edge id=":109755755_1" function="internal">
        <lane id=":109755755_1_0" index="0" allow="private emergency authority army vip passenger hov taxi bus coach delivery truck trailer motorcycle evehicle custom1 custom2" speed="22.35" length="14.60" shape="2139.02,5761.20 2134.79,5762.11 2131.98,5763.10 2129.17,5764.09 2124.94,5764.99"/>
        <lane id=":109755755_1_1" index="1" allow="private emergency authority army vip passenger hov taxi bus coach delivery truck trailer motorcycle evehicle custom1 custom2" speed="22.35" length="14.60" shape="2138.51,5757.94 2134.29,5758.85 2131.47,5759.84 2128.66,5760.83 2124.44,5761.73"/>
    </edge>
    <edge id=":109760574_0" function="internal">
        <lane id=":109760574_0_0" index="0" disallow="tram rail_urban rail rail_electric ship" speed="25.00" length="3.28" shape="3237.22,5711.84 3239.99,5713.78"/>
        <lane id=":109760574_0_1" index="1" disallow="tram rail_urban rail rail_electric ship" speed="25.00" length="3.28" shape="3234.31,5713.41 3236.97,5715.12"/>
    </edge>
    <edge id=":109760574_2" function="internal">
        <lane id=":109760574_2_0" index="0" disallow="tram rail_urban rail rail_electric ship" speed="27.78" length="0.13" shape="3231.40,5714.97 3231.51,5714.91"/>
        <lane id=":109760574_2_1" index="1" disallow="tram rail_urban rail rail_electric ship" speed="27.78" length="0.13" shape="3228.49,5716.53 3228.60,5716.47"/>
    </edge>
    <edge id=":109776939_0" function="internal">
        <lane id=":109776939_0_0" index="0" disallow="tram rail_urban rail rail_electric ship" speed="20.84" length="5.02" shape="2966.88,5706.05 2966.47,5704.73 2965.74,5703.87 2964.68,5703.47 2963.30,5703.52"/>
    </edge>
    <edge id=":109776939_1" function="internal">
        <lane id=":109776939_1_0" index="0" disallow="tram rail_urban rail rail_electric ship" speed="27.78" length="9.45" shape="2966.88,5706.05 2965.44,5696.68"/>
        <lane id=":109776939_1_1" index="1" disallow="tram rail_urban rail rail_electric ship" speed="27.78" length="9.45" shape="2970.14,5705.52 2968.70,5696.20"/>
    </edge>
    <edge id=":109776939_3" function="internal">
        <lane id=":109776939_3_0" index="0" disallow="tram rail_urban rail rail_electric ship" speed="20.84" length="5.11" shape="2962.70,5700.27 2964.07,5699.83 2964.97,5699.08 2965.43,5698.03 2965.44,5696.68"/>
    </edge>
    <edge id=":109776939_4" function="internal">
        <lane id=":109776939_4_0" index="0" disallow="tram rail_urban rail rail_electric ship" speed="13.89" length="4.82" shape="2962.70,5700.27 2964.07,5700.86 2964.63,5701.60 2964.37,5702.48 2963.30,5703.52"/>
    </edge>
    <edge id=":109777048_0" function="internal">
        <lane id=":109777048_0_0" index="0" disallow="tram rail_urban rail rail_electric ship" speed="27.78" length="2.88" shape="2885.98,5658.04 2883.07,5658.43"/>
        <lane id=":109777048_0_1" index="1" disallow="tram rail_urban rail rail_electric ship" speed="27.78" length="2.88" shape="2885.38,5654.79 2882.58,5655.17"/>
    </edge>
    <edge id=":109777048_2" function="internal">
        <lane id=":109777048_2_0" index="0" disallow="tram rail_urban rail rail_electric ship" speed="27.78" length="2.31" shape="2886.30,5666.19 2884.06,5664.95"/>
        <lane id=":109777048_2_1" index="1" disallow="tram rail_urban rail rail_electric ship" speed="27.78" length="2.31" shape="2883.88,5663.74 2883.57,5661.69"/>
    </edge>
    <edge id=":109778107_0" function="internal">
        <lane id=":109778107_0_0" index="0" disallow="tram rail_urban rail rail_electric ship" speed="27.78" length="7.55" shape="3102.88,5688.59 3102.31,5686.89 3101.22,5685.57 3099.62,5684.65 3097.49,5684.11"/>
    </edge>
    <edge id=":109778107_1" function="internal">
        <lane id=":109778107_1_0" index="0" disallow="tram rail_urban rail rail_electric ship" speed="27.78" length="11.09" shape="3102.88,5688.59 3100.97,5677.71"/>
        <lane id=":109778107_1_1" index="1" disallow="tram rail_urban rail rail_electric ship" speed="27.78" length="11.09" shape="3106.13,5688.06 3104.22,5677.10"/>
    </edge>
    <edge id=":109778107_3" function="internal">
        <lane id=":109778107_3_0" index="0" disallow="tram rail_urban rail rail_electric ship" speed="27.78" length="11.06" shape="3108.86,5684.62 3105.48,5684.83 3103.16,5684.82 3100.84,5684.59 3097.49,5684.11"/>
        <lane id=":109778107_3_1" index="1" disallow="tram rail_urban rail rail_electric ship" speed="27.78" length="11.06" shape="3108.62,5681.33 3105.45,5681.52 3103.28,5681.52 3101.11,5681.29 3097.96,5680.84"/>
    </edge>
    <edge id=":109778107_5" function="internal">
        <lane id=":109778107_5_0" index="0" disallow="tram rail_urban rail rail_electric ship" speed="27.78" length="6.78" shape="3108.62,5681.33 3107.01,5681.16 3105.73,5680.40 3104.80,5679.05 3104.22,5677.10"/>
    </edge>
    <edge id=":109778295_0" function="internal">
        <lane id=":109778295_0_0" index="0" disallow="tram rail_urban rail rail_electric ship" speed="22.22" length="9.49" shape="1194.77,5556.71 1193.27,5547.34"/>
    </edge>
    <edge id=":109778295_1" function="internal">
        <lane id=":109778295_1_0" index="0" allow="delivery bicycle pedestrian" speed="13.89" length="7.85" shape="1194.77,5556.71 1194.53,5553.92 1194.79,5551.85 1195.56,5550.51 1196.84,5549.89"/>
    </edge>
    <edge id=":109778295_2" function="internal">
        <lane id=":109778295_2_0" index="0" disallow="tram rail_urban rail rail_electric ship" speed="13.89" length="7.86" shape="1197.38,5553.15 1195.97,5552.98 1194.81,5551.95 1193.91,5550.08 1193.27,5547.34"/>
    </edge>
    <edge id=":109778295_3" function="internal">
        <lane id=":109778295_3_0" index="0" allow="delivery bicycle pedestrian" speed="5.56" length="4.82" shape="1197.38,5553.15 1196.03,5552.54 1195.48,5551.79 1195.75,5550.91 1196.84,5549.89"/>
    </edge>
    <edge id=":109778300_0" function="internal">
        <lane id=":109778300_0_0" index="0" allow="delivery bicycle pedestrian" speed="5.56" length="4.82" shape="1249.42,5541.06 1250.78,5541.66 1251.32,5542.41 1251.05,5543.29 1249.97,5544.31"/>
    </edge>
    <edge id=":109783164_0" function="internal">
        <lane id=":109783164_0_0" index="0" allow="private emergency authority army vip passenger hov taxi bus coach delivery truck trailer motorcycle evehicle custom1 custom2" speed="22.29" length="49.45" shape="2448.16,5695.07 2497.31,5689.62"/>
    </edge>
    <edge id=":109783164_1" function="internal">
        <lane id=":109783164_1_0" index="0" allow="private emergency authority army vip passenger hov taxi bus coach delivery truck trailer motorcycle evehicle custom1 custom2" speed="22.35" length="49.65" shape="2448.60,5698.32 2497.91,5692.86"/>
        <lane id=":109783164_1_1" index="1" allow="private emergency authority army vip passenger hov taxi bus coach delivery truck trailer motorcycle evehicle custom1 custom2" speed="22.35" length="49.65" shape="2449.13,5701.58 2498.51,5696.11"/>
    </edge>
    <edge id=":109784213_0" function="internal">
        <lane id=":109784213_0_0" index="0" disallow="tram rail_urban rail rail_electric ship" speed="27.78" length="11.72" shape="3082.98,5620.84 3083.38,5617.71 3085.24,5615.74 3087.08,5613.76 3087.40,5610.65"/>
        <lane id=":109784213_0_1" index="1" disallow="tram rail_urban rail rail_electric ship" speed="27.78" length="11.72" shape="3086.21,5620.18 3086.61,5617.03 3088.46,5615.04 3090.30,5613.05 3090.62,5609.92"/>
    </edge>
    <edge id=":109784213_2" function="internal">
        <lane id=":109784213_2_0" index="0" disallow="tram rail_urban rail rail_electric ship" speed="25.00" length="5.09" shape="3092.68,5618.86 3092.60,5617.46 3093.00,5616.39 3093.88,5615.67 3095.23,5615.30"/>
    </edge>
    <edge id=":109784213_3" function="internal">
        <lane id=":109784213_3_0" index="0" disallow="tram rail_urban rail rail_electric ship" speed="25.00" length="9.78" shape="3079.68,5613.56 3083.42,5613.86 3085.95,5613.48 3087.28,5612.41 3087.40,5610.65"/>
    </edge>
    <edge id=":109784213_4" function="internal">
        <lane id=":109784213_4_0" index="0" disallow="tram rail_urban rail rail_electric ship" speed="22.22" length="15.92" shape="3079.51,5616.88 3084.57,5617.21 3088.44,5616.76 3091.78,5615.98 3095.23,5615.30"/>
    </edge>
    <edge id=":109784242_0" function="internal">
        <lane id=":109784242_0_0" index="0" allow="private emergency authority army vip passenger hov taxi bus coach delivery truck trailer motorcycle evehicle custom1 custom2" speed="22.22" length="2.46" shape="2998.34,5603.65 3000.39,5602.12"/>
        <lane id=":109784242_0_1" index="1" allow="private emergency authority army vip passenger hov taxi bus coach delivery truck trailer motorcycle evehicle custom1 custom2" speed="22.22" length="2.46" shape="2998.34,5603.65 2999.95,5605.39"/>
    </edge>
    <edge id=":109784297_0" function="internal">
        <lane id=":109784297_0_0" index="0" allow="private emergency authority army vip passenger hov taxi bus coach delivery truck trailer motorcycle evehicle custom1 custom2" speed="22.29" length="5.00" shape="2891.51,5616.48 2896.45,5615.71"/>
    </edge>
    <edge id=":109784297_1" function="internal">
        <lane id=":109784297_1_0" index="0" allow="private emergency authority army vip passenger hov taxi bus coach delivery truck trailer motorcycle evehicle custom1 custom2" speed="22.35" length="5.87" shape="2892.08,5619.73 2898.15,5618.81"/>
        <lane id=":109784297_1_1" index="1" allow="private emergency authority army vip passenger hov taxi bus coach delivery truck trailer motorcycle evehicle custom1 custom2" speed="22.35" length="5.87" shape="2892.66,5622.98 2898.46,5622.10"/>
        <lane id=":109784297_1_2" index="2" allow="private emergency authority army vip passenger hov taxi bus coach delivery truck trailer motorcycle evehicle custom1 custom2" speed="22.35" length="5.87" shape="2893.23,5626.23 2898.77,5625.38"/>
    </edge>
    <edge id=":109784559_0" function="internal">