<?xml version="1.0" encoding="UTF-8"?>

<!-- generated on Fri Aug 18 13:20:39 2017 by SUMO duarouter Version 0.30.0
<?xml version="1.0" encoding="UTF-8"?>

<configuration xmlns:xsi="http://www.w3.org/2001/XMLSchema-instance" xsi:noNamespaceSchemaLocation="http://sumo.dlr.de/xsd/duarouterConfiguration.xsd">

    <input>
        <net-file value="grid.net.xml"/>
        <trip-files value="grid.trips.xml"/>
    </input>

    <output>
        <output-file value="grid.rou.xml"/>
    </output>

    <processing>
        <ignore-errors value="true"/>
    </processing>

    <time>
        <begin value="0"/>
        <end value="150.0"/>
    </time>

    <report>
        <no-warnings value="true"/>
        <no-step-log value="true"/>
    </report>

</configuration>
-->

<routes xmlns:xsi="http://www.w3.org/2001/XMLSchema-instance" xsi:noNamespaceSchemaLocation="http://sumo.dlr.de/xsd/routes_file.xsd">
    <vehicle id="0" depart="0.00">
        <route edges="13/4to12/4 12/4to11/4 11/4to10/4 10/4to9/4 9/4to8/4 8/4to7/4 7/4to6/4 6/4to5/4 5/4to4/4 4/4to3/4 3/4to2/4 2/4to2/3 2/3to2/2 2/2to2/1"/>
    </vehicle>
    <vehicle id="1" depart="0.50">
        <route edges="11/13to12/13 12/13to11/13 11/13to10/13 10/13to9/13 9/13to8/13 8/13to7/13 7/13to6/13 6/13to5/13 5/13to4/13 4/13to3/13 3/13to2/13 2/13to2/12 2/12to2/11 2/11to2/10 2/10to2/9 2/9to2/8 2/8to2/7 2/7to2/6 2/6to2/5 2/5to2/4 2/4to2/3 2/3to3/3"/>
    </vehicle>
    <vehicle id="2" depart="1.00">
        <route edges="12/10to11/10 11/10to11/11 11/11to12/11 12/11to13/11 13/11to14/11 14/11to14/10"/>
    </vehicle>
    <vehicle id="3" depart="1.50">
        <route edges="14/7to15/7 15/7to14/7 14/7to13/7 13/7to12/7 12/7to11/7 11/7to10/7 10/7to10/8 10/8to10/9 10/9to10/10 10/10to10/11 10/11to10/12 10/12to9/12 9/12to8/12"/>
    </vehicle>
    <vehicle id="4" depart="2.00">
        <route edges="10/11to10/12 10/12to9/12 9/12to8/12 8/12to7/12 7/12to6/12 6/12to5/12 5/12to4/12 4/12to3/12 3/12to3/11 3/11to3/10 3/10to3/9 3/9to3/8 3/8to3/7 3/7to3/6 3/6to3/5 3/5to3/4 3/4to3/3 3/3to3/2 3/2to3/1 3/1to3/2"/>
    </vehicle>
    <vehicle id="5" depart="2.50">
        <route edges="4/12to3/12 3/12to4/12 4/12to5/12 5/12to6/12 6/12to7/12 7/12to8/12 8/12to9/12 9/12to10/12 10/12to10/13 10/13to10/14 10/14to10/15 10/15to10/14"/>
    </vehicle>
    <vehicle id="6" depart="3.00">
        <route edges="9/13to9/12 9/12to8/12 8/12to7/12 7/12to6/12 6/12to5/12 5/12to4/12 4/12to3/12 3/12to2/12 2/12to2/13 2/13to2/14 2/14to2/15 2/15to1/15"/>
    </vehicle>
    <vehicle id="7" depart="3.50">
        <route edges="1/14to0/14 0/14to1/14 1/14to2/14 2/14to3/14 3/14to4/14 4/14to5/14 5/14to6/14 6/14to7/14 7/14to8/14 8/14to9/14 9/14to10/14 10/14to10/13 10/13to10/12 10/12to11/12 11/12to12/12 12/12to13/12 13/12to14/12 14/12to15/12 15/12to15/13"/>
    </vehicle>
    <vehicle id="8" depart="4.00">
        <route edges="11/1to11/2 11/2to10/2 10/2to9/2 9/2to8/2 8/2to7/2 7/2to6/2 6/2to5/2 5/2to5/3"/>
    </vehicle>
    <vehicle id="9" depart="4.50">
        <route edges="3/15to2/15 2/15to2/14 2/14to2/13 2/13to2/12 2/12to2/11 2/11to2/10 2/10to2/9 2/9to2/8 2/8to2/7 2/7to2/6 2/6to2/5 2/5to2/4 2/4to2/3 2/3to2/2 2/2to2/1 2/1to2/2"/>
    </vehicle>
    <vehicle id="10" depart="5.00">
        <route edges="8/11to8/12 8/12to7/12 7/12to6/12 6/12to5/12 5/12to4/12 4/12to3/12 3/12to2/12 2/12to2/11 2/11to2/10 2/10to2/9 2/9to2/8 2/8to2/7 2/7to3/7"/>
    </vehicle>
    <vehicle id="11" depart="5.50">
        <route edges="15/1to15/2 15/2to14/2 14/2to13/2 13/2to12/2 12/2to11/2 11/2to10/2 10/2to9/2 9/2to8/2 8/2to8/3 8/3to8/4 8/4to8/5 8/5to8/6 8/6to8/7 8/7to8/8 8/8to8/9 8/9to8/10 8/10to9/10"/>
    </vehicle>
    <vehicle id="12" depart="6.00">
        <route edges="9/4to9/3 9/3to8/3 8/3to7/3 7/3to6/3 6/3to5/3 5/3to4/3 4/3to3/3 3/3to2/3 2/3to1/3 1/3to0/3 0/3to0/4 0/4to0/5 0/5to0/6 0/6to0/7 0/7to0/8 0/8to0/9"/>
    </vehicle>
    <vehicle id="13" depart="6.50">
        <route edges="5/13to5/12 5/12to6/12 6/12to7/12 7/12to8/12 8/12to9/12 9/12to10/12 10/12to10/11 10/11to10/10 10/10to10/9 10/9to10/8 10/8to10/7 10/7to10/6 10/6to10/5 10/5to11/5 11/5to12/5 12/5to13/5 13/5to12/5"/>
    </vehicle>
    <vehicle id="14" depart="7.00">
        <route edges="5/5to6/5 6/5to5/5 5/5to4/5 4/5to3/5 3/5to2/5 2/5to2/6 2/6to2/5"/>
    </vehicle>
    <vehicle id="15" depart="7.50">
        <route edges="14/1to14/0 14/0to13/0 13/0to12/0 12/0to11/0 11/0to10/0 10/0to9/0 9/0to8/0 8/0to7/0 7/0to6/0 6/0to5/0 5/0to4/0 4/0to4/1 4/1to4/2 4/2to4/3 4/3to4/4 4/4to4/5 4/5to4/6 4/6to4/7 4/7to3/7"/>
    </vehicle>
    <vehicle id="16" depart="8.00">
        <route edges="5/15to5/14 5/14to5/13 5/13to5/12 5/12to5/11 5/11to5/10 5/10to5/9 5/9to6/9 6/9to7/9 7/9to8/9 8/9to9/9"/>
    </vehicle>
    <vehicle id="17" depart="8.50">
        <route edges="10/12to10/13 10/13to9/13 9/13to8/13 8/13to7/13 7/13to7/14 7/14to7/13"/>
    </vehicle>
    <vehicle id="18" depart="9.00">
        <route edges="5/8to5/9 5/9to4/9 4/9to4/10 4/10to3/10"/>
    </vehicle>
    <vehicle id="19" depart="9.50">
        <route edges="7/12to8/12 8/12to7/12 7/12to7/11 7/11to7/10 7/10to7/9 7/9to7/8 7/8to7/7 7/7to7/6 7/6to7/5 7/5to7/4 7/4to7/3 7/3to7/2 7/2to7/1"/>
    </vehicle>
    <vehicle id="20" depart="10.00">
        <route edges="11/12to10/12 10/12to9/12 9/12to8/12 8/12to7/12 7/12to6/12 6/12to5/12 5/12to4/12 4/12to3/12 3/12to2/12 2/12to2/11 2/11to2/10 2/10to2/9 2/9to2/8 2/8to2/7 2/7to2/6 2/6to2/5 2/5to2/4"/>
    </vehicle>
    <vehicle id="21" depart="10.50">
        <route edges="0/6to0/7 0/7to1/7 1/7to2/7 2/7to3/7 3/7to4/7 4/7to5/7 5/7to6/7 6/7to7/7 7/7to8/7 8/7to9/7 9/7to10/7 10/7to10/6 10/6to10/5 10/5to11/5 11/5to12/5 12/5to13/5 13/5to12/5"/>
    </vehicle>
    <vehicle id="22" depart="11.00">
        <route edges="12/6to11/6 11/6to10/6 10/6to10/7 10/7to10/8 10/8to10/9 10/9to10/10 10/10to10/11 10/11to10/12 10/12to10/13 10/13to10/14 10/14to9/14 9/14to8/14"/>
    </vehicle>
    <vehicle id="23" depart="11.50">
        <route edges="13/5to14/5 14/5to13/5 13/5to12/5 12/5to11/5 11/5to10/5 10/5to9/5 9/5to8/5 8/5to7/5 7/5to6/5 6/5to5/5 5/5to4/5 4/5to3/5 3/5to2/5 2/5to1/5 1/5to1/6 1/6to1/7 1/7to1/8 1/8to1/9 1/9to1/8"/>
    </vehicle>
    <vehicle id="24" depart="12.00">
        <route edges="2/6to2/7 2/7to2/8 2/8to2/9 2/9to3/9 3/9to4/9 4/9to3/9"/>
    </vehicle>
    <vehicle id="25" depart="12.50">
        <route edges="15/13to15/12 15/12to14/12 14/12to13/12 13/12to12/12 12/12to11/12 11/12to10/12 10/12to9/12 9/12to8/12 8/12to7/12 7/12to6/12 6/12to5/12 5/12to4/12 4/12to3/12 3/12to2/12 2/12to2/13 2/13to2/14 2/14to1/14"/>
    </vehicle>
    <vehicle id="26" depart="13.00">
        <route edges="6/0to5/0 5/0to4/0 4/0to3/0 3/0to2/0 2/0to1/0 1/0to1/1 1/1to0/1 0/1to0/2 0/2to0/3 0/3to0/4 0/4to1/4"/>
    </vehicle>
    <vehicle id="27" depart="13.50">
        <route edges="8/4to8/3 8/3to9/3 9/3to10/3 10/3to10/4 10/4to10/5 10/5to10/6 10/6to11/6 11/6to12/6 12/6to13/6 13/6to14/6 14/6to14/7"/>
    </vehicle>
    <vehicle id="28" depart="14.00">
        <route edges="9/4to8/4 8/4to7/4 7/4to6/4 6/4to5/4 5/4to4/4 4/4to3/4 3/4to2/4 2/4to2/3 2/3to2/2"/>
    </vehicle>
    <vehicle id="29" depart="14.50">
        <route edges="12/11to13/11 13/11to12/11 12/11to11/11 11/11to10/11 10/11to9/11 9/11to8/11 8/11to7/11 7/11to6/11 6/11to5/11 5/11to4/11 4/11to4/12 4/12to4/13 4/13to4/14 4/14to5/14"/>
    </vehicle>
    <vehicle id="30" depart="15.00">
        <route edges="8/5to9/5 9/5to8/5 8/5to7/5 7/5to6/5 6/5to5/5 5/5to4/5 4/5to4/6 4/6to4/7 4/7to4/8 4/8to4/9 4/9to4/10 4/10to4/11 4/11to4/12 4/12to5/12"/>
    </vehicle>
    <vehicle id="31" depart="15.50">
        <route edges="1/10to2/10 2/10to3/10 3/10to4/10 4/10to5/10 5/10to6/10 6/10to7/10 7/10to8/10 8/10to9/10 9/10to10/10 10/10to10/11 10/11to10/12 10/12to10/13 10/13to10/14 10/14to11/14 11/14to12/14 12/14to13/14 13/14to12/14"/>
    </vehicle>
    <vehicle id="32" depart="16.00">
        <route edges="4/12to5/12 5/12to5/11 5/11to5/10 5/10to5/9 5/9to5/8 5/8to5/7 5/7to5/6 5/6to5/5 5/5to5/4 5/4to5/3 5/3to5/2 5/2to5/1 5/1to6/1 6/1to7/1 7/1to8/1 8/1to7/1"/>
    </vehicle>
    <vehicle id="33" depart="16.50">
        <route edges="13/3to14/3 14/3to13/3 13/3to12/3 12/3to11/3 11/3to10/3 10/3to9/3 9/3to8/3 8/3to7/3 7/3to6/3 6/3to5/3 5/3to4/3 4/3to4/4 4/4to4/5 4/5to4/6 4/6to4/7 4/7to4/8 4/8to4/9 4/9to4/10 4/10to4/11 4/11to4/12 4/12to4/13 4/13to4/14 4/14to4/15 4/15to3/15"/>
    </vehicle>
    <vehicle id="34" depart="17.00">
        <route edges="8/11to7/11 7/11to6/11 6/11to5/11 5/11to4/11 4/11to3/11 3/11to3/10 3/10to3/9 3/9to3/8 3/8to3/7 3/7to3/6 3/6to3/5 3/5to3/4 3/4to3/3 3/3to3/2"/>
    </vehicle>
    <vehicle id="35" depart="17.50">
        <route edges="6/4to5/4 5/4to6/4 6/4to7/4 7/4to8/4 8/4to9/4 9/4to10/4 10/4to10/5 10/5to10/6 10/6to10/7 10/7to10/8 10/8to10/9 10/9to10/10 10/10to10/11 10/11to10/12 10/12to10/13 10/13to10/14 10/14to11/14 11/14to12/14 12/14to13/14"/>
    </vehicle>
    <vehicle id="36" depart="18.00">
        <route edges="12/10to13/10 13/10to12/10 12/10to11/10 11/10to10/10 10/10to9/10 9/10to8/10 8/10to7/10 7/10to6/10 6/10to5/10 5/10to4/10 4/10to3/10 3/10to3/9 3/9to3/8 3/8to3/7 3/7to3/6 3/6to3/5 3/5to3/4 3/4to3/3 3/3to4/3"/>
    </vehicle>
    <vehicle id="37" depart="18.50">
        <route edges="5/1to6/1 6/1to7/1 7/1to8/1 8/1to9/1 9/1to10/1 10/1to10/0 10/0to11/0 11/0to12/0 12/0to13/0 13/0to14/0 14/0to15/0 15/0to14/0"/>
    </vehicle>
    <vehicle id="38" depart="19.00">
        <route edges="6/10to6/11 6/11to5/11 5/11to4/11 4/11to4/10 4/10to4/9 4/9to4/8 4/8to4/7 4/7to4/6 4/6to4/5 4/5to4/4 4/4to4/3 4/3to5/3"/>
    </vehicle>
    <vehicle id="39" depart="19.50">
        <route edges="3/3to2/3 2/3to1/3 1/3to1/2 1/2to0/2"/>
    </vehicle>
    <vehicle id="40" depart="20.00">
        <route edges="8/4to8/5 8/5to9/5 9/5to10/5 10/5to10/6 10/6to10/7 10/7to10/8 10/8to10/9 10/9to10/10 10/10to11/10 11/10to12/10 12/10to13/10 13/10to14/10 14/10to14/11"/>
    </vehicle>
    <vehicle id="41" depart="20.50">
        <route edges="13/10to13/11 13/11to12/11 12/11to11/11 11/11to10/11 10/11to9/11 9/11to8/11 8/11to7/11 7/11to6/11 6/11to5/11 5/11to4/11 4/11to3/11 3/11to3/10 3/10to3/9 3/9to3/8 3/8to3/7 3/7to3/6 3/6to3/5 3/5to3/4 3/4to3/3 3/3to3/2 3/2to3/1"/>
    </vehicle>
    <vehicle id="42" depart="21.00">
        <route edges="8/8to8/7 8/7to7/7 7/7to6/7 6/7to7/7"/>
    </vehicle>
    <vehicle id="43" depart="21.50">
        <route edges="14/8to15/8 15/8to14/8 14/8to13/8 13/8to12/8 12/8to12/9 12/9to12/10 12/10to12/11 12/11to12/12"/>
    </vehicle>
    <vehicle id="44" depart="22.00">
        <route edges="4/13to4/14 4/14to4/13 4/13to4/12 4/12to4/11 4/11to4/10 4/10to5/10 5/10to6/10 6/10to7/10 7/10to8/10"/>
    </vehicle>
    <vehicle id="45" depart="22.50">
        <route edges="0/13to0/14 0/14to1/14 1/14to2/14 2/14to3/14 3/14to4/14 4/14to5/14 5/14to6/14 6/14to7/14 7/14to8/14 8/14to9/14 9/14to10/14 10/14to10/13 10/13to10/12 10/12to10/11 10/11to10/10 10/10to10/9 10/9to10/8 10/8to10/7 10/7to10/6 10/6to10/5 10/5to10/4 10/4to10/3 10/3to10/2 10/2to10/1 10/1to11/1 11/1to12/1 12/1to13/1 13/1to14/1 14/1to14/0"/>
    </vehicle>
    <vehicle id="46" depart="23.00">
        <route edges="0/4to1/4 1/4to2/4 2/4to3/4 3/4to4/4 4/4to5/4 5/4to6/4 6/4to7/4 7/4to8/4 8/4to9/4 9/4to10/4 10/4to10/5 10/5to10/6 10/6to10/7 10/7to10/8 10/8to10/9 10/9to11/9 11/9to12/9 12/9to13/9 13/9to14/9 14/9to15/9 15/9to14/9"/>
    </vehicle>
    <vehicle id="47" depart="23.50">
        <route edges="12/9to13/9 13/9to12/9 12/9to12/8"/>
    </vehicle>
    <vehicle id="48" depart="24.00">
        <route edges="9/15to8/15 8/15to9/15 9/15to10/15 10/15to10/14 10/14to10/13 10/13to10/12 10/12to10/11 10/11to10/10 10/10to10/9 10/9to10/8 10/8to10/7 10/7to10/6 10/6to10/5 10/5to10/4 10/4to10/3 10/3to10/2 10/2to11/2 11/2to12/2 12/2to13/2 13/2to14/2 14/2to14/3"/>
    </vehicle>
    <vehicle id="49" depart="24.50">
        <route edges="0/8to1/8 1/8to1/9 1/9to1/10 1/10to1/11 1/11to1/12 1/12to1/13 1/13to1/14 1/14to1/15 1/15to2/15 2/15to3/15 3/15to4/15 4/15to5/15 5/15to4/15"/>
    </vehicle>
    <vehicle id="50" depart="25.00">
        <route edges="9/11to8/11 8/11to7/11 7/11to6/11 6/11to7/11"/>
    </vehicle>
    <vehicle id="51" depart="25.50">
        <route edges="3/5to2/5 2/5to2/4 2/4to3/4 3/4to4/4 4/4to5/4 5/4to6/4 6/4to7/4 7/4to8/4 8/4to7/4"/>
    </vehicle>
    <vehicle id="52" depart="26.00">
        <route edges="7/11to8/11 8/11to7/11 7/11to6/11 6/11to6/10 6/10to6/9 6/9to6/8 6/8to6/7 6/7to6/6 6/6to6/5 6/5to6/4 6/4to6/5"/>
    </vehicle>
    <vehicle id="53" depart="26.50">
        <route edges="3/14to2/14 2/14to3/14 3/14to4/14 4/14to5/14 5/14to6/14 6/14to7/14 7/14to8/14 8/14to9/14 9/14to10/14 10/14to10/13 10/13to10/12 10/12to10/11 10/11to11/11 11/11to12/11"/>
    </vehicle>
    <vehicle id="54" depart="27.00">
        <route edges="8/7to7/7 7/7to6/7 6/7to6/8 6/8to6/9 6/9to6/10 6/10to6/11 6/11to6/12 6/12to7/12"/>
    </vehicle>
    <vehicle id="55" depart="27.50">
        <route edges="5/13to6/13 6/13to7/13 7/13to8/13 8/13to9/13 9/13to10/13 10/13to10/12 10/12to10/11 10/11to10/10 10/10to10/9 10/9to10/8 10/8to10/7 10/7to10/6 10/6to10/5 10/5to10/4 10/4to11/4 11/4to12/4 12/4to12/5"/>
    </vehicle>
    <vehicle id="56" depart="28.00">
        <route edges="9/11to9/10 9/10to8/10 8/10to8/9 8/9to8/8 8/8to8/7 8/7to8/6"/>
    </vehicle>
    <vehicle id="57" depart="28.50">
        <route edges="11/11to11/10 11/10to10/10 10/10to9/10 9/10to8/10 8/10to7/10 7/10to6/10 6/10to5/10 5/10to5/9 5/9to5/8 5/8to5/9"/>
    </vehicle>
    <vehicle id="58" depart="29.00">
        <route edges="2/5to2/4 2/4to2/5 2/5to2/6 2/6to2/7 2/7to2/8 2/8to2/9 2/9to2/10 2/10to3/10 3/10to4/10 4/10to5/10 5/10to6/10 6/10to6/11"/>
    </vehicle>
    <vehicle id="59" depart="29.50">
        <route edges="1/7to0/7 0/7to1/7 1/7to2/7 2/7to3/7 3/7to4/7 4/7to5/7 5/7to6/7 6/7to7/7 7/7to8/7 8/7to9/7 9/7to10/7 10/7to10/6 10/6to10/5 10/5to10/4 10/4to10/3 10/3to10/2 10/2to11/2 11/2to12/2 12/2to13/2 13/2to14/2 14/2to15/2 15/2to14/2"/>
    </vehicle>
    <vehicle id="60" depart="30.00">
        <route edges="14/14to15/14 15/14to14/14 14/14to13/14 13/14to12/14 12/14to11/14 11/14to10/14 10/14to9/14 9/14to8/14 8/14to7/14 7/14to6/14 6/14to6/13 6/13to6/12 6/12to6/11 6/11to6/10 6/10to6/9 6/9to6/8 6/8to6/7 6/7to6/6 6/6to6/5 6/5to6/4 6/4to6/3 6/3to6/2 6/2to6/1 6/1to6/0 6/0to5/0"/>
    </vehicle>
    <vehicle id="61" depart="30.50">
        <route edges="11/13to12/13 12/13to12/12 12/12to12/11 12/11to12/10 12/10to12/9 12/9to12/8 12/8to12/7 12/7to13/7 13/7to14/7 14/7to15/7"/>
    </vehicle>
    <vehicle id="62" depart="31.00">
        <route edges="4/0to4/1 4/1to4/2 4/2to4/3 4/3to5/3 5/3to6/3 6/3to7/3 7/3to8/3 8/3to7/3"/>
    </vehicle>
    <vehicle id="63" depart="31.50">
        <route edges="0/0to1/0 1/0to1/1 1/1to1/2 1/2to1/3 1/3to1/4 1/4to1/5 1/5to1/6 1/6to1/7 1/7to2/7 2/7to2/8"/>
    </vehicle>
    <vehicle id="64" depart="32.00">
        <route edges="14/14to14/15 14/15to14/14 14/14to14/13 14/13to14/12 14/12to14/11 14/11to14/10 14/10to14/9 14/9to14/8 14/8to14/7 14/7to14/6 14/6to15/6"/>
    </vehicle>
    <vehicle id="65" depart="32.50">
        <route edges="0/4to0/5 0/5to1/5 1/5to2/5 2/5to3/5 3/5to4/5 4/5to5/5 5/5to6/5 6/5to7/5 7/5to8/5 8/5to9/5 9/5to10/5 10/5to10/6 10/6to10/7 10/7to10/8 10/8to10/9 10/9to10/10 10/10to10/11 10/11to11/11 11/11to12/11 12/11to13/11 13/11to14/11 14/11to15/11"/>
    </vehicle>
    <vehicle id="66" depart="33.00">
        <route edges="0/3to1/3 1/3to1/4 1/4to1/5 1/5to1/6 1/6to1/7 1/7to2/7 2/7to3/7 3/7to4/7 4/7to5/7 5/7to5/6"/>
    </vehicle>
    <vehicle id="67" depart="33.50">
        <route edges="3/7to4/7 4/7to4/8 4/8to4/9 4/9to4/10 4/10to4/11 4/11to4/12 4/12to4/13 4/13to4/14 4/14to4/15 4/15to5/15"/>
    </vehicle>
    <vehicle id="68" depart="34.00">
        <route edges="14/10to14/11 14/11to13/11 13/11to12/11 12/11to11/11 11/11to11/10 11/10to11/9 11/9to11/8 11/8to11/7 11/7to11/6 11/6to11/5 11/5to10/5"/>
    </vehicle>
    <vehicle id="69" depart="34.50">
        <route edges="12/7to11/7 11/7to10/7 10/7to9/7 9/7to8/7 8/7to7/7 7/7to6/7 6/7to5/7 5/7to4/7 4/7to3/7 3/7to2/7 2/7to1/7 1/7to0/7 0/7to0/6 0/6to1/6"/>
    </vehicle>
    <vehicle id="70" depart="35.00">
        <route edges="8/13to9/13 9/13to8/13 8/13to8/12 8/12to8/11 8/11to8/10 8/10to8/9 8/9to8/8 8/8to8/7 8/7to8/6 8/6to8/5 8/5to8/6"/>
    </vehicle>
    <vehicle id="71" depart="35.50">
        <route edges="14/2to14/3 14/3to13/3 13/3to12/3 12/3to11/3 11/3to10/3 10/3to9/3 9/3to8/3 8/3to7/3 7/3to7/4 7/4to7/5 7/5to7/6 7/6to7/7 7/7to7/8 7/8to7/9 7/9to7/10 7/10to7/11 7/11to7/12 7/12to7/13 7/13to7/14 7/14to8/14"/>
    </vehicle>
    <vehicle id="72" depart="36.00">
        <route edges="4/6to4/5 4/5to5/5 5/5to6/5 6/5to7/5 7/5to8/5 8/5to9/5 9/5to10/5 10/5to10/4 10/4to10/3 10/3to11/3 11/3to12/3 12/3to13/3 13/3to13/2"/>
    </vehicle>
    <vehicle id="73" depart="36.50">
        <route edges="13/6to12/6 12/6to12/7 12/7to12/8 12/8to12/9 12/9to12/10 12/10to12/11 12/11to12/12 12/12to12/13 12/13to12/14 12/14to12/15 12/15to13/15 13/15to14/15"/>
    </vehicle>
    <vehicle id="74" depart="37.00">
        <route edges="2/14to2/15 2/15to3/15 3/15to4/15 4/15to5/15 5/15to6/15 6/15to7/15 7/15to8/15 8/15to9/15 9/15to10/15 10/15to10/14 10/14to10/13 10/13to10/12 10/12to10/11 10/11to10/10 10/10to10/9 10/9to10/8 10/8to10/7 10/7to10/6 10/6to10/5 10/5to10/4 10/4to10/3 10/3to10/2 10/2to11/2 11/2to11/1"/>
    </vehicle>
    <vehicle id="75" depart="37.50">
        <route edges="4/8to3/8 3/8to4/8 4/8to5/8 5/8to6/8 6/8to7/8 7/8to8/8 8/8to9/8 9/8to9/9"/>
    </vehicle>
    <vehicle id="76" depart="38.00">
        <route edges="1/4to1/3 1/3to1/4 1/4to2/4 2/4to3/4 3/4to4/4 4/4to5/4 5/4to6/4 6/4to7/4 7/4to8/4 8/4to9/4 9/4to9/5"/>
    </vehicle>
    <vehicle id="77" depart="38.50">
        <route edges="14/15to14/14 14/14to13/14 13/14to12/14 12/14to11/14 11/14to10/14 10/14to9/14 9/14to8/14 8/14to7/14 7/14to6/14 6/14to5/14 5/14to5/13 5/13to5/12 5/12to5/11 5/11to5/10 5/10to5/9 5/9to5/8 5/8to5/7 5/7to5/6 5/6to5/5 5/5to5/4 5/4to5/3 5/3to5/2 5/2to5/1 5/1to6/1"/>
    </vehicle>
    <vehicle id="78" depart="39.00">
        <route edges="2/6to1/6 1/6to0/6 0/6to0/5 0/5to0/4 0/4to0/3 0/3to0/2 0/2to0/1 0/1to0/0 0/0to0/1"/>
    </vehicle>
    <vehicle id="79" depart="39.50">
        <route edges="1/13to1/14 1/14to0/14 0/14to0/13 0/13to0/12 0/12to1/12"/>
    </vehicle>
    <vehicle id="80" depart="40.00">
        <route edges="10/14to10/15 10/15to9/15 9/15to8/15 8/15to7/15 7/15to6/15 6/15to5/15 5/15to4/15 4/15to3/15 3/15to3/14 3/14to3/13 3/13to3/12 3/12to3/11 3/11to3/12"/>
    </vehicle>
    <vehicle id="81" depart="40.50">
        <route edges="9/0to9/1 9/1to8/1 8/1to7/1 7/1to6/1 6/1to5/1 5/1to4/1 4/1to3/1 3/1to3/2 3/2to3/3 3/3to3/4 3/4to3/5 3/5to3/6 3/6to3/7 3/7to3/8 3/8to3/9 3/9to3/8"/>
    </vehicle>
    <vehicle id="82" depart="41.00">
        <route edges="4/4to5/4 5/4to5/5 5/5to5/6 5/6to5/7 5/7to5/8 5/8to5/9 5/9to5/10 5/10to5/11 5/11to5/12 5/12to6/12 6/12to7/12 7/12to8/12 8/12to9/12 9/12to10/12"/>
    </vehicle>
    <vehicle id="83" depart="41.50">
        <route edges="12/10to13/10 13/10to12/10 12/10to11/10 11/10to10/10 10/10to9/10 9/10to8/10 8/10to7/10 7/10to6/10 6/10to5/10 5/10to5/9 5/9to5/8 5/8to5/7 5/7to5/6 5/6to5/5 5/5to5/4 5/4to5/3 5/3to6/3"/>
    </vehicle>
    <vehicle id="84" depart="42.00">
        <route edges="10/9to11/9 11/9to11/10 11/10to11/11 11/11to11/12 11/12to12/12 12/12to13/12 13/12to14/12 14/12to13/12"/>
    </vehicle>
    <vehicle id="85" depart="42.50">
        <route edges="9/5to10/5 10/5to10/6 10/6to10/7 10/7to10/8 10/8to10/9 10/9to10/10 10/10to10/11 10/11to10/12 10/12to11/12 11/12to12/12 12/12to13/12 13/12to13/13"/>
    </vehicle>
    <vehicle id="86" depart="43.00">
        <route edges="3/15to2/15 2/15to2/14 2/14to2/13 2/13to2/12 2/12to2/11 2/11to2/10 2/10to2/9 2/9to3/9 3/9to4/9 4/9to5/9 5/9to6/9 6/9to6/10"/>
    </vehicle>
    <vehicle id="87" depart="43.50">
        <route edges="5/7to4/7 4/7to4/8 4/8to4/9 4/9to4/10 4/10to4/11 4/11to4/12 4/12to4/13 4/13to4/14 4/14to5/14 5/14to6/14 6/14to6/15"/>
    </vehicle>
    <vehicle id="88" depart="44.00">
        <route edges="14/8to15/8 15/8to14/8 14/8to13/8 13/8to12/8 12/8to11/8 11/8to10/8 10/8to9/8 9/8to8/8 8/8to7/8 7/8to6/8 6/8to5/8 5/8to4/8 4/8to3/8 3/8to2/8 2/8to1/8 1/8to1/7 1/7to1/6 1/6to1/5 1/5to2/5"/>
    </vehicle>
    <vehicle id="89" depart="44.50">
        <route edges="5/0to6/0 6/0to7/0 7/0to8/0 8/0to9/0 9/0to10/0 10/0to10/1 10/1to10/2 10/2to11/2 11/2to10/2"/>
    </vehicle>
    <vehicle id="90" depart="45.00">
        <route edges="7/5to8/5 8/5to7/5 7/5to6/5 6/5to5/5 5/5to4/5 4/5to3/5 3/5to2/5 2/5to2/6 2/6to2/7 2/7to2/8 2/8to2/9 2/9to2/10 2/10to2/11 2/11to2/12 2/12to2/13 2/13to2/14 2/14to2/15 2/15to1/15"/>
    </vehicle>
    <vehicle id="91" depart="45.50">
        <route edges="1/12to1/13 1/13to2/13 2/13to3/13 3/13to4/13 4/13to5/13 5/13to6/13 6/13to7/13 7/13to8/13 8/13to9/13 9/13to10/13 10/13to10/12 10/12to10/11 10/11to10/10 10/10to10/9 10/9to10/8 10/8to10/7 10/7to10/6 10/6to10/5 10/5to10/4 10/4to10/3 10/3to11/3 11/3to12/3 12/3to13/3 13/3to13/4"/>
    </vehicle>
    <vehicle id="92" depart="46.00">
        <route edges="10/3to9/3 9/3to9/4 9/4to9/5 9/5to9/6 9/6to9/7 9/7to8/7"/>
    </vehicle>
    <vehicle id="93" depart="46.50">
        <route edges="14/10to15/10 15/10to14/10 14/10to13/10 13/10to12/10 12/10to11/10 11/10to10/10 10/10to9/10 9/10to8/10 8/10to8/9 8/9to8/8 8/8to8/7 8/7to8/6 8/6to8/5 8/5to8/4 8/4to8/5"/>
    </vehicle>
    <vehicle id="94" depart="47.00">
        <route edges="9/4to9/5 9/5to10/5 10/5to10/4 10/4to10/3 10/3to11/3"/>
    </vehicle>
    <vehicle id="95" depart="47.50">
        <route edges="5/1to6/1 6/1to6/2 6/2to6/3 6/3to7/3 7/3to8/3"/>
    </vehicle>
    <vehicle id="96" depart="48.00">
        <route edges="5/4to5/3 5/3to6/3 6/3to7/3 7/3to8/3 8/3to9/3 9/3to10/3 10/3to10/4 10/4to10/5 10/5to10/6 10/6to10/7 10/7to10/8 10/8to10/9 10/9to10/10 10/10to10/11 10/11to10/12 10/12to10/13 10/13to11/13 11/13to12/13 12/13to13/13 13/13to12/13"/>
    </vehicle>
    <vehicle id="97" depart="48.50">
        <route edges="9/3to9/4 9/4to8/4 8/4to7/4 7/4to6/4 6/4to5/4 5/4to4/4 4/4to3/4 3/4to2/4 2/4to1/4 1/4to1/5 1/5to1/6 1/6to1/7 1/7to1/6"/>
    </vehicle>
    <vehicle id="98" depart="49.00">
        <route edges="13/11to14/11 14/11to13/11 13/11to12/11 12/11to11/11 11/11to10/11 10/11to9/11 9/11to8/11 8/11to7/11 7/11to6/11 6/11to5/11 5/11to5/10 5/10to5/9 5/9to5/8 5/8to5/7 5/7to5/6"/>
    </vehicle>
    <vehicle id="99" depart="49.50">
        <route edges="1/2to0/2 0/2to0/1 0/1to1/1 1/1to2/1 2/1to3/1 3/1to4/1 4/1to4/2"/>
    </vehicle>
    <vehicle id="100" depart="50.00">
        <route edges="2/10to2/11 2/11to3/11 3/11to4/11 4/11to5/11 5/11to6/11 6/11to7/11 7/11to8/11 8/11to9/11 9/11to10/11 10/11to10/12 10/12to10/13"/>
    </vehicle>
    <vehicle id="101" depart="50.50">
        <route edges="14/8to14/9 14/9to13/9 13/9to12/9 12/9to11/9 11/9to10/9 10/9to9/9 9/9to8/9 8/9to7/9 7/9to6/9 6/9to5/9 5/9to4/9 4/9to4/8 4/8to4/7 4/7to4/6 4/6to4/5 4/5to4/4 4/4to4/3 4/3to4/4"/>
    </vehicle>
    <vehicle id="102" depart="51.00">
        <route edges="12/0to13/0 13/0to12/0 12/0to11/0 11/0to10/0 10/0to9/0 9/0to8/0 8/0to7/0 7/0to6/0 6/0to5/0 5/0to4/0 4/0to3/0 3/0to3/1 3/1to4/1"/>
    </vehicle>
    <vehicle id="103" depart="51.50">
        <route edges="11/2to11/1 11/1to10/1 10/1to9/1 9/1to8/1 8/1to8/2 8/2to8/3 8/3to9/3"/>
    </vehicle>
    <vehicle id="104" depart="52.00">
        <route edges="4/1to5/1 5/1to6/1 6/1to7/1 7/1to8/1 8/1to9/1 9/1to10/1 10/1to10/2 10/2to10/3 10/3to10/4 10/4to10/5 10/5to10/6 10/6to11/6 11/6to12/6 12/6to13/6"/>
    </vehicle>
    <vehicle id="105" depart="52.50">
        <route edges="14/8to13/8 13/8to12/8 12/8to12/9 12/9to12/10 12/10to11/10"/>
    </vehicle>
    <vehicle id="106" depart="53.00">
        <route edges="14/11to14/12 14/12to13/12 13/12to12/12 12/12to12/11 12/11to12/10 12/10to12/9 12/9to11/9"/>
    </vehicle>
    <vehicle id="107" depart="53.50">
        <route edges="14/11to15/11 15/11to14/11 14/11to13/11 13/11to12/11 12/11to11/11 11/11to11/12 11/12to11/13 11/13to11/14 11/14to10/14"/>
    </vehicle>
    <vehicle id="108" depart="54.00">
        <route edges="5/4to4/4 4/4to5/4 5/4to6/4 6/4to7/4 7/4to8/4 8/4to9/4 9/4to10/4 10/4to10/5 10/5to10/6 10/6to10/7 10/7to10/8 10/8to10/9 10/9to10/10 10/10to10/11 10/11to11/11 11/11to12/11 12/11to11/11"/>
    </vehicle>
    <vehicle id="109" depart="54.50">
        <route edges="3/11to4/11 4/11to4/10 4/10to4/9 4/9to4/8 4/8to4/7 4/7to4/6 4/6to4/5 4/5to4/4 4/4to5/4 5/4to6/4 6/4to7/4 7/4to8/4 8/4to8/5"/>
    </vehicle>
    <vehicle id="110" depart="55.00">
        <route edges="10/2to10/1 10/1to9/1 9/1to8/1 8/1to8/2 8/2to8/3 8/3to8/4 8/4to8/5 8/5to8/6 8/6to8/7 8/7to8/8 8/8to8/9 8/9to8/10 8/10to8/11 8/11to8/12 8/12to7/12"/>
    </vehicle>
    <vehicle id="111" depart="55.50">
        <route edges="7/3to8/3 8/3to9/3 9/3to10/3 10/3to10/4 10/4to10/5 10/5to10/6 10/6to10/7 10/7to10/8 10/8to10/9 10/9to10/10 10/10to10/11 10/11to11/11 11/11to11/12"/>
    </vehicle>
    <vehicle id="112" depart="56.00">
        <route edges="12/12to13/12 13/12to12/12 12/12to11/12 11/12to11/11 11/11to11/10 11/10to11/11"/>
    </vehicle>
    <vehicle id="113" depart="56.50">
        <route edges="13/10to13/11 13/11to12/11 12/11to11/11 11/11to10/11 10/11to9/11 9/11to8/11 8/11to7/11 7/11to6/11 6/11to5/11 5/11to4/11 4/11to4/10 4/10to4/9 4/9to4/8 4/8to4/7 4/7to4/6 4/6to4/5 4/5to4/4 4/4to4/5"/>
    </vehicle>
    <vehicle id="114" depart="57.00">
        <route edges="13/8to13/9 13/9to12/9 12/9to11/9 11/9to10/9 10/9to9/9 9/9to8/9 8/9to7/9 7/9to6/9 6/9to5/9 5/9to5/8 5/8to5/7 5/7to4/7"/>
    </vehicle>
    <vehicle id="115" depart="57.50">
        <route edges="15/8to15/7 15/7to14/7 14/7to13/7 13/7to13/8 13/8to13/9 13/9to13/10"/>
    </vehicle>
    <vehicle id="116" depart="58.00">
        <route edges="10/4to11/4 11/4to10/4 10/4to10/5 10/5to10/6 10/6to10/7 10/7to10/8 10/8to10/9 10/9to10/10 10/10to10/11 10/11to10/12 10/12to10/13 10/13to9/13 9/13to9/12"/>
    </vehicle>
    <vehicle id="117" depart="58.50">
        <route edges="2/3to2/2 2/2to2/3 2/3to2/4 2/4to2/5 2/5to2/6 2/6to2/7 2/7to2/8 2/8to2/9 2/9to2/10 2/10to2/11 2/11to2/12 2/12to2/13 2/13to2/14 2/14to3/14 3/14to4/14 4/14to5/14 5/14to6/14 6/14to6/15"/>
    </vehicle>
    <vehicle id="118" depart="59.00">
        <route edges="9/3to8/3 8/3to7/3 7/3to6/3 6/3to5/3 5/3to4/3 4/3to3/3 3/3to2/3 2/3to1/3 1/3to0/3 0/3to0/2 0/2to0/1 0/1to0/0 0/0to0/1"/>
    </vehicle>
    <vehicle id="119" depart="59.50">
        <route edges="4/8to4/7 4/7to4/6 4/6to4/5 4/5to5/5 5/5to6/5 6/5to6/4"/>
    </vehicle>
    <vehicle id="120" depart="60.00">
        <route edges="2/2to2/3 2/3to2/2 2/2to3/2 3/2to4/2 4/2to4/1"/>
    </vehicle>
    <vehicle id="121" depart="60.50">
        <route edges="12/2to12/3 12/3to11/3 11/3to10/3 10/3to9/3 9/3to8/3 8/3to7/3 7/3to7/4 7/4to7/5 7/5to7/6 7/6to7/5"/>
    </vehicle>
    <vehicle id="122" depart="61.00">
        <route edges="0/5to0/4 0/4to1/4 1/4to2/4 2/4to3/4 3/4to4/4 4/4to5/4 5/4to6/4 6/4to7/4 7/4to8/4 8/4to9/4 9/4to10/4 10/4to10/3 10/3to10/2 10/2to11/2 11/2to12/2 12/2to13/2 13/2to14/2 14/2to15/2"/>
    </vehicle>
    <vehicle id="123" depart="61.50">
        <route edges="12/10to13/10 13/10to12/10 12/10to11/10 11/10to10/10 10/10to9/10 9/10to8/10 8/10to8/9 8/9to8/8 8/8to8/7 8/7to8/6 8/6to8/5 8/5to8/4 8/4to8/3 8/3to8/2 8/2to8/1 8/1to8/0 8/0to9/0"/>
    </vehicle>
    <vehicle id="124" depart="62.00">
        <route edges="12/7to11/7 11/7to11/6 11/6to11/5 11/5to11/4 11/4to11/3 11/3to12/3 12/3to13/3 13/3to14/3 14/3to15/3 15/3to15/2"/>
    </vehicle>
    <vehicle id="125" depart="62.50">
        <route edges="5/3to5/2 5/2to5/3 5/3to5/4 5/4to5/5 5/5to5/6 5/6to5/7 5/7to5/8 5/8to5/9 5/9to5/10 5/10to5/11 5/11to5/12 5/12to5/13 5/13to5/14 5/14to6/14 6/14to6/13"/>
    </vehicle>
    <vehicle id="126" depart="63.00">
        <route edges="1/8to0/8 0/8to0/9 0/9to0/10 0/10to0/11 0/11to0/12 0/12to1/12 1/12to2/12"/>
    </vehicle>
    <vehicle id="127" depart="63.50">
        <route edges="10/12to11/12 11/12to10/12 10/12to10/11 10/11to10/10 10/10to10/9 10/9to10/8 10/8to10/7 10/7to10/6 10/6to10/5 10/5to10/4 10/4to10/3 10/3to10/2 10/2to10/1 10/1to9/1 9/1to10/1"/>
    </vehicle>
    <vehicle id="128" depart="64.00">
        <route edges="10/5to11/5 11/5to11/6 11/6to11/7 11/7to11/8 11/8to11/9 11/9to11/10 11/10to11/11 11/11to11/12 11/12to11/13 11/13to11/14 11/14to12/14 12/14to13/14 13/14to13/13"/>
    </vehicle>
    <vehicle id="129" depart="64.50">
        <route edges="10/6to11/6 11/6to10/6 10/6to9/6 9/6to8/6 8/6to8/7 8/7to8/8 8/8to8/9 8/9to8/10 8/10to9/10"/>
    </vehicle>
    <vehicle id="130" depart="65.00">
        <route edges="12/5to12/4 12/4to11/4 11/4to10/4 10/4to9/4 9/4to8/4 8/4to7/4 7/4to6/4 6/4to6/3 6/3to6/2 6/2to5/2"/>
    </vehicle>
    <vehicle id="131" depart="65.50">
        <route edges="4/2to5/2 5/2to5/1 5/1to4/1"/>
    </vehicle>
    <vehicle id="132" depart="66.00">
        <route edges="1/2to1/3 1/3to2/3 2/3to3/3 3/3to4/3 4/3to5/3 5/3to6/3 6/3to7/3 7/3to8/3 8/3to9/3 9/3to10/3 10/3to10/4 10/4to10/5 10/5to10/6 10/6to10/7 10/7to10/8 10/8to10/9 10/9to10/10 10/10to10/11 10/11to10/12 10/12to11/12 11/12to12/12 12/12to13/12"/>
    </vehicle>
    <vehicle id="133" depart="66.50">
        <route edges="14/7to15/7 15/7to14/7 14/7to13/7 13/7to12/7 12/7to11/7 11/7to10/7 10/7to9/7 9/7to8/7 8/7to7/7 7/7to6/7 6/7to5/7 5/7to4/7 4/7to3/7 3/7to2/7 2/7to1/7 1/7to1/6 1/6to1/5 1/5to1/4 1/4to1/3 1/3to1/2 1/2to1/1 1/1to2/1"/>
    </vehicle>
    <vehicle id="134" depart="67.00">
        <route edges="10/3to10/4 10/4to11/4 11/4to12/4 12/4to12/5"/>
    </vehicle>
    <vehicle id="135" depart="67.50">
        <route edges="14/7to14/8 14/8to14/9 14/9to14/10 14/10to14/11 14/11to15/11"/>
    </vehicle>
    <vehicle id="136" depart="68.00">
        <route edges="4/15to3/15 3/15to2/15 2/15to1/15 1/15to1/14 1/14to0/14 0/14to0/13 0/13to0/12 0/12to0/11 0/11to0/10 0/10to0/9 0/9to0/8 0/8to0/7 0/7to0/8"/>
    </vehicle>
    <vehicle id="137" depart="68.50">