<?xml version="1.0"?>
<!-- generated on 2017-08-18 13:20:32.111132 by $Id: randomTrips.py 23999 2017-04-21 09:04:47Z behrisch $
  options: -n grid.net.xml -o grid.trips.xml -r grid.rou.xml -e 150 -p 0.5
-->
<routes xmlns:xsi="http://www.w3.org/2001/XMLSchema-instance" xsi:noNamespaceSchemaLocation="http://sumo.dlr.de/xsd/routes_file.xsd">
    <trip id="0" depart="0.00" from="13/4to12/4" to="2/2to2/1"/>
    <trip id="1" depart="0.50" from="11/13to12/13" to="2/3to3/3"/>
    <trip id="2" depart="1.00" from="12/10to11/10" to="14/11to14/10"/>
    <trip id="3" depart="1.50" from="14/7to15/7" to="9/12to8/12"/>
    <trip id="4" depart="2.00" from="10/11to10/12" to="3/1to3/2"/>
    <trip id="5" depart="2.50" from="4/12to3/12" to="10/15to10/14"/>
    <trip id="6" depart="3.00" from="9/13to9/12" to="2/15to1/15"/>
    <trip id="7" depart="3.50" from="1/14to0/14" to="15/12to15/13"/>
    <trip id="8" depart="4.00" from="11/1to11/2" to="5/2to5/3"/>
    <trip id="9" depart="4.50" from="3/15to2/15" to="2/1to2/2"/>
    <trip id="10" depart="5.00" from="8/11to8/12" to="2/7to3/7"/>
    <trip id="11" depart="5.50" from="15/1to15/2" to="8/10to9/10"/>
    <trip id="12" depart="6.00" from="9/4to9/3" to="0/8to0/9"/>
    <trip id="13" depart="6.50" from="5/13to5/12" to="13/5to12/5"/>
    <trip id="14" depart="7.00" from="5/5to6/5" to="2/6to2/5"/>
    <trip id="15" depart="7.50" from="14/1to14/0" to="4/7to3/7"/>
    <trip id="16" depart="8.00" from="5/15to5/14" to="8/9to9/9"/>
    <trip id="17" depart="8.50" from="10/12to10/13" to="7/14to7/13"/>
    <trip id="18" depart="9.00" from="5/8to5/9" to="4/10to3/10"/>
    <trip id="19" depart="9.50" from="7/12to8/12" to="7/2to7/1"/>
    <trip id="20" depart="10.00" from="11/12to10/12" to="2/5to2/4"/>
    <trip id="21" depart="10.50" from="0/6to0/7" to="13/5to12/5"/>
    <trip id="22" depart="11.00" from="12/6to11/6" to="9/14to8/14"/>
    <trip id="23" depart="11.50" from="13/5to14/5" to="1/9to1/8"/>
    <trip id="24" depart="12.00" from="2/6to2/7" to="4/9to3/9"/>
    <trip id="25" depart="12.50" from="15/13to15/12" to="2/14to1/14"/>
    <trip id="26" depart="13.00" from="6/0to5/0" to="0/4to1/4"/>
    <trip id="27" depart="13.50" from="8/4to8/3" to="14/6to14/7"/>
    <trip id="28" depart="14.00" from="9/4to8/4" to="2/3to2/2"/>
    <trip id="29" depart="14.50" from="12/11to13/11" to="4/14to5/14"/>
    <trip id="30" depart="15.00" from="8/5to9/5" to="4/12to5/12"/>
    <trip id="31" depart="15.50" from="1/10to2/10" to="13/14to12/14"/>
    <trip id="32" depart="16.00" from="4/12to5/12" to="8/1to7/1"/>
    <trip id="33" depart="16.50" from="13/3to14/3" to="4/15to3/15"/>
    <trip id="34" depart="17.00" from="8/11to7/11" to="3/3to3/2"/>
    <trip id="35" depart="17.50" from="6/4to5/4" to="12/14to13/14"/>
    <trip id="36" depart="18.00" from="12/10to13/10" to="3/3to4/3"/>
    <trip id="37" depart="18.50" from="5/1to6/1" to="15/0to14/0"/>
    <trip id="38" depart="19.00" from="6/10to6/11" to="4/3to5/3"/>
    <trip id="39" depart="19.50" from="3/3to2/3" to="1/2to0/2"/>
    <trip id="40" depart="20.00" from="8/4to8/5" to="14/10to14/11"/>
    <trip id="41" depart="20.50" from="13/10to13/11" to="3/2to3/1"/>
    <trip id="42" depart="21.00" from="8/8to8/7" to="6/7to7/7"/>
    <trip id="43" depart="21.50" from="14/8to15/8" to="12/11to12/12"/>
    <trip id="44" depart="22.00" from="4/13to4/14" to="7/10to8/10"/>
    <trip id="45" depart="22.50" from="0/13to0/14" to="14/1to14/0"/>
    <trip id="46" depart="23.00" from="0/4to1/4" to="15/9to14/9"/>
    <trip id="47" depart="23.50" from="12/9to13/9" to="12/9to12/8"/>
    <trip id="48" depart="24.00" from="9/15to8/15" to="14/2to14/3"/>
    <trip id="49" depart="24.50" from="0/8to1/8" to="5/15to4/15"/>
    <trip id="50" depart="25.00" from="9/11to8/11" to="6/11to7/11"/>
    <trip id="51" depart="25.50" from="3/5to2/5" to="8/4to7/4"/>
    <trip id="52" depart="26.00" from="7/11to8/11" to="6/4to6/5"/>
    <trip id="53" depart="26.50" from="3/14to2/14" to="11/11to12/11"/>
    <trip id="54" depart="27.00" from="8/7to7/7" to="6/12to7/12"/>
    <trip id="55" depart="27.50" from="5/13to6/13" to="12/4to12/5"/>
    <trip id="56" depart="28.00" from="9/11to9/10" to="8/7to8/6"/>
    <trip id="57" depart="28.50" from="11/11to11/10" to="5/8to5/9"/>
    <trip id="58" depart="29.00" from="2/5to2/4" to="6/10to6/11"/>
    <trip id="59" depart="29.50" from="1/7to0/7" to="15/2to14/2"/>
    <trip id="60" depart="30.00" from="14/14to15/14" to="6/0to5/0"/>
    <trip id="61" depart="30.50" from="11/13to12/13" to="14/7to15/7"/>
    <trip id="62" depart="31.00" from="4/0to4/1" to="8/3to7/3"/>
    <trip id="63" depart="31.50" from="0/0to1/0" to="2/7to2/8"/>
    <trip id="64" depart="32.00" from="14/14to14/15" to="14/6to15/6"/>
    <trip id="65" depart="32.50" from="0/4to0/5" to="14/11to15/11"/>
    <trip id="66" depart="33.00" from="0/3to1/3" to="5/7to5/6"/>
    <trip id="67" depart="33.50" from="3/7to4/7" to="4/15to5/15"/>
    <trip id="68" depart="34.00" from="14/10to14/11" to="11/5to10/5"/>
    <trip id="69" depart="34.50" from="12/7to11/7" to="0/6to1/6"/>
    <trip id="70" depart="35.00" from="8/13to9/13" to="8/5to8/6"/>
    <trip id="71" depart="35.50" from="14/2to14/3" to="7/14to8/14"/>
    <trip id="72" depart="36.00" from="4/6to4/5" to="13/3to13/2"/>
    <trip id="73" depart="36.50" from="13/6to12/6" to="13/15to14/15"/>
    <trip id="74" depart="37.00" from="2/14to2/15" to="11/2to11/1"/>
    <trip id="75" depart="37.50" from="4/8to3/8" to="9/8to9/9"/>
    <trip id="76" depart="38.00" from="1/4to1/3" to="9/4to9/5"/>
    <trip id="77" depart="38.50" from="14/15to14/14" to="5/1to6/1"/>
    <trip id="78" depart="39.00" from="2/6to1/6" to="0/0to0/1"/>
    <trip id="79" depart="39.50" from="1/13to1/14" to="0/12to1/12"/>
    <trip id="80" depart="40.00" from="10/14to10/15" to="3/11to3/12"/>
    <trip id="81" depart="40.50" from="9/0to9/1" to="3/9to3/8"/>
    <trip id="82" depart="41.00" from="4/4to5/4" to="9/12to10/12"/>
    <trip id="83" depart="41.50" from="12/10to13/10" to="5/3to6/3"/>
    <trip id="84" depart="42.00" from="10/9to11/9" to="14/12to13/12"/>
    <trip id="85" depart="42.50" from="9/5to10/5" to="13/12to13/13"/>
    <trip id="86" depart="43.00" from="3/15to2/15" to="6/9to6/10"/>
    <trip id="87" depart="43.50" from="5/7to4/7" to="6/14to6/15"/>
    <trip id="88" depart="44.00" from="14/8to15/8" to="1/5to2/5"/>
    <trip id="89" depart="44.50" from="5/0to6/0" to="11/2to10/2"/>
    <trip id="90" depart="45.00" from="7/5to8/5" to="2/15to1/15"/>
    <trip id="91" depart="45.50" from="1/12to1/13" to="13/3to13/4"/>
    <trip id="92" depart="46.00" from="10/3to9/3" to="9/7to8/7"/>
    <trip id="93" depart="46.50" from="14/10to15/10" to="8/4to8/5"/>
    <trip id="94" depart="47.00" from="9/4to9/5" to="10/3to11/3"/>
    <trip id="95" depart="47.50" from="5/1to6/1" to="7/3to8/3"/>
    <trip id="96" depart="48.00" from="5/4to5/3" to="13/13to12/13"/>
    <trip id="97" depart="48.50" from="9/3to9/4" to="1/7to1/6"/>
    <trip id="98" depart="49.00" from="13/11to14/11" to="5/7to5/6"/>
    <trip id="99" depart="49.50" from="1/2to0/2" to="4/1to4/2"/>
    <trip id="100" depart="50.00" from="2/10to2/11" to="10/12to10/13"/>
    <trip id="101" depart="50.50" from="14/8to14/9" to="4/3to4/4"/>
    <trip id="102" depart="51.00" from="12/0to13/0" to="3/1to4/1"/>
    <trip id="103" depart="51.50" from="11/2to11/1" to="8/3to9/3"/>
    <trip id="104" depart="52.00" from="4/1to5/1" to="12/6to13/6"/>
    <trip id="105" depart="52.50" from="14/8to13/8" to="12/10to11/10"/>
    <trip id="106" depart="53.00" from="14/11to14/12" to="12/9to11/9"/>
    <trip id="107" depart="53.50" from="14/11to15/11" to="11/14to10/14"/>
    <trip id="108" depart="54.00" from="5/4to4/4" to="12/11to11/11"/>
    <trip id="109" depart="54.50" from="3/11to4/11" to="8/4to8/5"/>
    <trip id="110" depart="55.00" from="10/2to10/1" to="8/12to7/12"/>
    <trip id="111" depart="55.50" from="7/3to8/3" to="11/11to11/12"/>
    <trip id="112" depart="56.00" from="12/12to13/12" to="11/10to11/11"/>
    <trip id="113" depart="56.50" from="13/10to13/11" to="4/4to4/5"/>
    <trip id="114" depart="57.00" from="13/8to13/9" to="5/7to4/7"/>
    <trip id="115" depart="57.50" from="15/8to15/7" to="13/9to13/10"/>
    <trip id="116" depart="58.00" from="10/4to11/4" to="9/13to9/12"/>
    <trip id="117" depart="58.50" from="2/3to2/2" to="6/14to6/15"/>
    <trip id="118" depart="59.00" from="9/3to8/3" to="0/0to0/1"/>
    <trip id="119" depart="59.50" from="4/8to4/7" to="6/5to6/4"/>
    <trip id="120" depart="60.00" from="2/2to2/3" to="4/2to4/1"/>
    <trip id="121" depart="60.50" from="12/2to12/3" to="7/6to7/5"/>
    <trip id="122" depart="61.00" from="0/5to0/4" to="14/2to15/2"/>
    <trip id="123" depart="61.50" from="12/10to13/10" to="8/0to9/0"/>
    <trip id="124" depart="62.00" from="12/7to11/7" to="15/3to15/2"/>
    <trip id="125" depart="62.50" from="5/3to5/2" to="6/14to6/13"/>
    <trip id="126" depart="63.00" from="1/8to0/8" to="1/12to2/12"/>
    <trip id="127" depart="63.50" from="10/12to11/12" to="9/1to10/1"/>
    <trip id="128" depart="64.00" from="10/5to11/5" to="13/14to13/13"/>
    <trip id="129" depart="64.50" from="10/6to11/6" to="8/10to9/10"/>
    <trip id="130" depart="65.00" from="12/5to12/4" to="6/2to5/2"/>
    <trip id="131" depart="65.50" from="4/2to5/2" to="5/1to4/1"/>
    <trip id="132" depart="66.00" from="1/2to1/3" to="12/12to13/12"/>
    <trip id="133" depart="66.50" from="14/7to15/7" to="1/1to2/1"/>
    <trip id="134" depart="67.00" from="10/3to10/4" to="12/4to12/5"/>
    <trip id="135" depart="67.50" from="14/7to14/8" to="14/11to15/11"/>
    <trip id="136" depart="68.00" from="4/15to3/15" to="0/7to0/8"/>
    <trip id="137" depart="68.50" from="11/3to11/2" to="8/13to8/14"/>
    <trip id="138" depart="69.00" from="11/6to10/6" to="2/8to3/8"/>
    <trip id="139" depart="69.50" from="3/4to3/5" to="1/7to1/8"/>
    <trip id="140" depart="70.00" from="13/2to13/1" to="14/11to14/12"/>
    <trip id="141" depart="70.50" from="12/10to12/9" to="0/14to0/13"/>
    <trip id="142" depart="71.00" from="4/5to5/5" to="7/3to6/3"/>
    <trip id="143" depart="71.50" from="8/14to8/15" to="3/2to4/2"/>
    <trip id="144" depart="72.00" from="9/3to8/3" to="10/11to9/11"/>
    <trip id="145" depart="72.50" from="11/7to10/7" to="6/9to5/9"/>
    <trip id="146" depart="73.00" from="3/7to2/7" to="11/11to12/11"/>
    <trip id="147" depart="73.50" from="7/7to8/7" to="3/3to3/4"/>
    <trip id="148" depart="74.00" from="14/15to13/15" to="2/14to2/15"/>
    <trip id="149" depart="74.50" from="0/6to0/5" to="13/10to13/9"/>
    <trip id="150" depart="75.00" from="6/10to6/9" to="0/9to0/8"/>
    <trip id="151" depart="75.50" from="8/13to8/12" to="0/2to0/3"/>
    <trip id="152" depart="76.00" from="15/14to14/14" to="5/2to6/2"/>
    <trip id="153" depart="76.50" from="6/13to7/13" to="14/5to15/5"/>
    <trip id="154" depart="77.00" from="14/5to13/5" to="6/1to6/0"/>
    <trip id="155" depart="77.50" from="12/11to12/10" to="8/9to9/9"/>
    <trip id="156" depart="78.00" from="4/1to5/1" to="3/14to4/14"/>
    <trip id="157" depart="78.50" from="12/10to12/11" to="8/5to8/6"/>
    <trip id="158" depart="79.00" from="13/11to14/11" to="7/14to7/13"/>
    <trip id="159" depart="79.50" from="7/15to7/14" to="9/3to9/2"/>
    <trip id="160" depart="80.00" from="11/3to11/4" to="4/10to5/10"/>
    <trip id="161" depart="80.50" from="6/15to5/15" to="10/12to10/11"/>
    <trip id="162" depart="81.00" from="14/2to14/1" to="2/8to2/7"/>
    <trip id="163" depart="81.50" from="14/13to14/14" to="11/13to10/13"/>
    <trip id="164" depart="82.00" from="9/15to9/14" to="9/7to9/6"/>
    <trip id="165" depart="82.50" from="9/1to9/0" to="1/6to2/6"/>
    <trip id="166" depart="83.00" from="15/8to15/9" to="13/12to13/13"/>
    <trip id="167" depart="83.50" from="4/12to5/12" to="6/14to6/13"/>
    <trip id="168" depart="84.00" from="9/2to10/2" to="2/8to1/8"/>
    <trip id="169" depart="84.50" from="15/12to14/12" to="7/12to7/13"/>
    <trip id="170" depart="85.00" from="3/10to3/11" to="4/6to5/6"/>
    <trip id="171" depart="85.50" from="15/12to14/12" to="6/1to5/1"/>
    <trip id="172" depart="86.00" from="14/8to15/8" to="14/3to14/4"/>
    <trip id="173" depart="86.50" from="8/14to8/13" to="14/11to14/10"/>
    <trip id="174" depart="87.00" from="3/9to2/9" to="0/15to1/15"/>
    <trip id="175" depart="87.50" from="9/10to10/10" to="2/15to1/15"/>
    <trip id="176" depart="88.00" from="7/13to8/13" to="6/15to7/15"/>
    <trip id="177" depart="88.50" from="15/1to15/0" to="9/8to9/7"/>
    <trip id="178" depart="89.00" from="0/8to0/7" to="4/7to3/7"/>
    <trip id="179" depart="89.50" from="5/6to5/7" to="12/8to13/8"/>
    <trip id="180" depart="90.00" from="2/15to3/15" to="2/3to2/4"/>
    <trip id="181" depart="90.50" from="15/12to15/11" to="9/1to8/1"/>
    <trip id="182" depart="91.00" from="8/12to9/12" to="15/6to15/5"/>
    <trip id="183" depart="91.50" from="8/12to8/13" to="8/10to8/9"/>
    <trip id="184" depart="92.00" from="1/6to1/7" to="12/12to13/12"/>
    <trip id="185" depart="92.50" from="14/1to14/0" to="8/6to8/5"/>
    <trip id="186" depart="93.00" from="5/13to5/14" to="3/0to2/0"/>
    <trip id="187" depart="93.50" from="8/1to7/1" to="9/3to9/4"/>
    <trip id="188" depart="94.00" from="6/9to6/8" to="1/2to0/2"/>
    <trip id="189" depart="94.50" from="8/5to7/5" to="11/6to10/6"/>
    <trip id="190" depart="95.00" from="9/0to8/0" to="1/12to1/13"/>
    <trip id="191" depart="95.50" from="8/2to8/1" to="0/4to0/5"/>
    <trip id="192" depart="96.00" from="9/7to9/8" to="13/5to12/5"/>
    <trip id="193" depart="96.50" from="14/0to15/0" to="8/5to9/5"/>
    <trip id="194" depart="97.00" from="4/2to5/2" to="4/2to4/1"/>
    <trip id="195" depart="97.50" from="14/14to15/14" to="14/14to13/14"/>
    <trip id="196" depart="98.00" from="1/2to1/1" to="4/9to5/9"/>
    <trip id="197" depart="98.50" from="1/7to2/7" to="6/5to7/5"/>
    <trip id="198" depart="99.00" from="11/2to12/2" to="4/4to4/5"/>
    <trip id="199" depart="99.50" from="3/5to3/4" to="12/10to12/9"/>
    <trip id="200" depart="100.00" from="6/1to6/2" to="4/8to4/9"/>
    <trip id="201" depart="100.50" from="14/2to14/3" to="5/3to6/3"/>
    <trip id="202" depart="101.00" from="4/10to4/9" to="13/3to14/3"/>
    <trip id="203" depart="101.50" from="12/12to12/13" to="7/14to7/15"/>
    <trip id="204" depart="102.00" from="1/12to2/12" to="14/0to14/1"/>
    <trip id="205" depart="102.50" from="8/8to8/9" to="8/3to8/2"/>
    <trip id="206" depart="103.00" from="8/1to8/2" to="14/12to13/12"/>
    <trip id="207" depart="103.50" from="15/3to15/2" to="2/5to1/5"/>
    <trip id="208" depart="104.00" from="9/5to10/5" to="0/8to0/7"/>
    <trip id="209" depart="104.50" from="13/13to14/13" to="12/9to12/8"/>
    <trip id="210" depart="105.00" from="3/8to4/8" to="7/5to6/5"/>
    <trip id="211" depart="105.50" from="6/8to5/8" to="2/14to2/15"/>
    <trip id="212" depart="106.00" from="11/1to11/0" to="4/3to4/4"/>
    <trip id="213" depart="106.50" from="4/7to3/7" to="10/0to11/0"/>
    <trip id="214" depart="107.00" from="11/12to10/12" to="9/11to9/10"/>
    <trip id="215" depart="107.50" from="9/11to10/11" to="10/1to11/1"/>
    <trip id="216" depart="108.00" from="12/13to11/13" to="6/13to6/12"/>
    <trip id="217" depart="108.50" from="7/9to8/9" to="4/11to4/12"/>
    <trip id="218" depart="109.00" from="6/15to7/15" to="1/2to0/2"/>
    <trip id="219" depart="109.50" from="1/3to1/2" to="10/4to9/4"/>
    <trip id="220" depart="110.00" from="13/9to13/8" to="9/0to10/0"/>
    <trip id="221" depart="110.50" from="10/1to10/2" to="11/11to10/11"/>
    <trip id="222" depart="111.00" from="0/13to0/14" to="15/8to14/8"/>
    <trip id="223" depart="111.50" from="15/8to14/8" to="14/12to15/12"/>
    <trip id="224" depart="112.00" from="1/5to1/4" to="5/12to6/12"/>
    <trip id="225" depart="112.50" from="7/13to8/13" to="2/3to2/4"/>
    <trip id="226" depart="113.00" from="11/5to11/6" to="7/8to7/9"/>
    <trip id="227" depart="113.50" from="11/8to11/7" to="0/1to0/0"/>
    <trip id="228" depart="114.00" from="15/13to14/13" to="4/7to4/6"/>
    <trip id="229" depart="114.50" from="3/4to3/3" to="9/3to9/2"/>
    <trip id="230" depart="115.00" from="12/14to11/14" to="11/6to11/5"/>
    <trip id="231" depart="115.50" from="11/12to10/12" to="2/5to3/5"/>
    <trip id="232" depart="116.00" from="4/14to5/14" to="11/6to10/6"/>
    <trip id="233" depart="116.50" from="0/2to0/1" to="7/14to7/13"/>
    <trip id="234" depart="117.00" from="3/6to2/6" to="7/1to7/0"/>
    <trip id="235" depart="117.50" from="13/9to13/10" to="9/7to9/8"/>
    <trip id="236" depart="118.00" from="14/14to14/13" to="12/15to12/14"/>
    <trip id="237" depart="118.50" from="0/10to1/10" to="1/5to1/4"/>
    <trip id="238" depart="119.00" from="10/9to9/9" to="5/2to6/2"/>
    <trip id="239" depart="119.50" from="0/6to0/7" to="1/13to0/13"/>
    <trip id="240" depart="120.00" from="4/9to5/9" to="7/8to8/8"/>
    <trip id="241" depart="120.50" from="4/4to4/5" to="8/15to7/15"/>
    <trip id="242" depart="121.00" from="14/5to15/5" to="3/4to2/4"/>
    <trip id="243" depart="121.50" from="10/12to10/11" to="3/1to4/1"/>
    <trip id="244" depart="122.00" from="14/14to13/14" to="0/14to0/13"/>
    <trip id="245" depart="122.50" from="6/12to6/11" to="2/13to2/14"/>
    <trip id="246" depart="123.00" from="12/3to13/3" to="7/4to6/4"/>
    <trip id="247" depart="123.50" from="15/0to15/1" to="1/5to1/4"/>
    <trip id="248" depart="124.00" from="1/14to2/14" to="1/11to2/11"/>
    <trip id="249" depart="124.50" from="14/13to15/13" to="14/0to14/1"/>
    <trip id="250" depart="125.00" from="14/11to15/11" to="1/1to2/1"/>
    <trip id="251" depart="125.50" from="10/3to10/4" to="0/0to1/0"/>
    <trip id="252" depart="126.00" from="3/2to3/3" to="11/15to10/15"/>
    <trip id="253" depart="126.50" from="7/7to7/6" to="5/1to6/1"/>
    <trip id="254" depart="127.00" from="6/9to5/9" to="6/13to7/13"/>
    <trip id="255" depart="127.50" from="2/1to2/0" to="10/9to11/9"/>
    <trip id="256" depart="128.00" from="10/1to10/0" to="13/10to13/11"/>
    <trip id="257" depart="128.50" from="11/10to10/10" to="3/9to2/9"/>
    <trip id="258" depart="129.00" from="13/3to12/3" to="14/15to15/15"/>
    <trip id="259" depart="129.50" from="4/6to4/5" to="9/13to10/13"/>
    <trip id="260" depart="130.00" from="14/11to15/11" to="8/11to8/12"/>
    <trip id="261" depart="130.50" from="10/14to10/15" to="9/11to10/11"/>
    <trip id="262" depart="131.00" from="6/8to5/8" to="9/13to9/12"/>
    <trip id="263" depart="131.50" from="1/7to1/6" to="7/13to7/14"/>
    <trip id="264" depart="132.00" from="5/13to6/13" to="13/6to12/6"/>
    <trip id="265" depart="132.50" from="12/6to12/7" to="9/14to10/14"/>
    <trip id="266" depart="133.00" from="5/1to6/1" to="6/3to5/3"/>
    <trip id="267" depart="133.50" from="15/11to15/12" to="15/3to14/3"/>
    <trip id="268" depart="134.00" from="11/0to10/0" to="7/3to6/3"/>
    <trip id="269" depart="134.50" from="10/3to9/3" to="15/3to15/4"/>
    <trip id="270" depart="135.00" from="8/13to7/13" to="15/4to15/5"/>
    <trip id="271" depart="135.50" from="10/6to10/7" to="13/12to12/12"/>
    <trip id="272" depart="136.00" from="6/8to5/8" to="10/3to9/3"/>
    <trip id="273" depart="136.50" from="7/7to7/8" to="0/12to0/13"/>
    <trip id="274" depart="137.00" from="0/0to1/0" to="12/10to12/11"/>
    <trip id="275" depart="137.50" from="5/1to5/2" to="6/11to7/11"/>
    <trip id="276" depart="138.00" from="12/1to12/0" to="7/2to7/3"/>
    <trip id="277" depart="138.50" from="9/14to8/14" to="8/10to8/9"/>
    <trip id="278" depart="139.00" from="4/5to4/4" to="4/13to3/13"/>
    <trip id="279" depart="139.50" from="11/11to12/11" to="14/15to15/15"/>
    <trip id="280" depart="140.00" from="0/7to0/8" to="8/4to9/4"/>
    <trip id="281" depart="140.50" from="5/12to4/12" to="5/14to5/15"/>
    <trip id="282" depart="141.00" from="2/10to2/9" to="7/12to7/13"/>
    <trip id="283" depart="141.50" from="12/5to13/5" to="11/6to11/7"/>
    <trip id="284" depart="142.00" from="4/9to4/8" to="4/10to4/11"/>
    <trip id="285" depart="142.50" from="0/3to0/4" to="3/10to3/9"/>
    <trip id="286" depart="143.00" from="12/5to12/6" to="12/4to11/4"/>
    <trip id="287" depart="143.50" from="15/1to14/1" to="7/15to8/15"/>
    <trip id="288" depart="144.00" from="4/11to3/11" to="2/0to1/0"/>
    <trip id="289" depart="144.50" from="7/11to6/11" to="13/15to12/15"/>
    <trip id="290" depart="145.00" from="5/1to5/2" to="2/2to3/2"/>
    <trip id="291" depart="145.50" from="12/9to13/9" to="5/4to4/4"/>
    <trip id="292" depart="146.00" from="3/12to3/13" to="14/10to14/9"/>
    <trip id="293" depart="146.50" from="0/11to0/12" to="6/5to6/4"/>
    <trip id="294" depart="147.00" from="6/12to6/11" to="1/13to1/12"/>
    <trip id="295" depart="147.50" from="8/10to8/9" to="4/7to4/6"/>
    <trip id="296" depart="148.00" from="8/3to8/4" to="6/2to6/1"/>
    <trip id="297" depart="148.50" from="12/4to12/3" to="4/12to4/11"/>
    <trip id="298" depart="149.00" from="6/11to5/11" to="9/10to9/9"/>
    <trip id="299" depart="149.50" from="11/4to11/5" to="2/3to2/2"/>
</routes>
