<?xml version="1.0" encoding="UTF-8"?>

<!-- generated on Mon Aug 14 07:45:15 2017 by SUMO netgenerate Version 0.30.0
<?xml version="1.0" encoding="UTF-8"?>

<configuration xmlns:xsi="http://www.w3.org/2001/XMLSchema-instance" xsi:noNamespaceSchemaLocation="http://sumo.dlr.de/xsd/netgenerateConfiguration.xsd">

    <grid_network>
        <grid value="true"/>
        <grid.x-number value="11"/>
        <grid.y-number value="31"/>
        <grid.x-length value="150"/>
        <grid.y-length value="50"/>
    </grid_network>

    <output>
        <output-file value="finegrid.net.xml"/>
    </output>

</configuration>
-->

<net version="0.27" xmlns:xsi="http://www.w3.org/2001/XMLSchema-instance" xsi:noNamespaceSchemaLocation="http://sumo.dlr.de/xsd/net_file.xsd">

    <location netOffset="0.00,0.00" convBoundary="0.00,0.00,1500.00,1500.00" origBoundary="0.00,0.00,1500.00,1500.00" projParameter="!"/>

    <edge id=":0/0_0" function="internal">
        <lane id=":0/0_0_0" index="0" speed="13.90" length="7.90" shape="-1.65,3.25 -1.34,1.11 -0.43,-0.43 1.11,-1.34 3.25,-1.65"/>
    </edge>
    <edge id=":0/0_1" function="internal">
        <lane id=":0/0_1_0" index="0" speed="13.90" length="2.80" shape="-1.65,3.25 -0.83,2.01 -0.00,1.60 0.35,1.77"/>
    </edge>
    <edge id=":0/0_4" function="internal">
        <lane id=":0/0_4_0" index="0" speed="13.90" length="2.02" shape="0.35,1.77 0.82,2.01 1.65,3.25"/>
    </edge>
    <edge id=":0/0_2" function="internal">
        <lane id=":0/0_2_0" index="0" speed="13.90" length="2.58" shape="3.25,1.65 2.55,1.75 2.05,2.05 1.75,2.55 1.65,3.25"/>
    </edge>
    <edge id=":0/0_3" function="internal">
        <lane id=":0/0_3_0" index="0" speed="13.90" length="2.20" shape="3.25,1.65 2.01,0.82 1.69,0.19"/>
    </edge>
    <edge id=":0/0_5" function="internal">
        <lane id=":0/0_5_0" index="0" speed="13.90" length="2.62" shape="1.69,0.19 1.60,-0.00 2.01,-0.83 3.25,-1.65"/>
    </edge>
    <edge id=":0/1_0" function="internal">
        <lane id=":0/1_0_0" index="0" speed="13.90" length="9.50" shape="-1.65,54.75 -1.65,45.25"/>
    </edge>
    <edge id=":0/1_1" function="internal">
        <lane id=":0/1_1_0" index="0" speed="13.90" length="5.28" shape="-1.65,54.75 -1.25,51.95 -0.05,49.95 0.05,49.89"/>
    </edge>
    <edge id=":0/1_2" function="internal">
        <lane id=":0/1_2_0" index="0" speed="13.90" length="2.41" shape="-1.65,54.75 -0.83,53.51 0.00,53.10"/>
    </edge>
    <edge id=":0/1_9" function="internal">
        <lane id=":0/1_9_0" index="0" speed="13.90" length="5.04" shape="0.05,49.89 1.95,48.75 4.75,48.35"/>
    </edge>
    <edge id=":0/1_10" function="internal">
        <lane id=":0/1_10_0" index="0" speed="13.90" length="2.41" shape="0.00,53.10 0.83,53.51 1.65,54.75"/>
    </edge>
    <edge id=":0/1_3" function="internal">
        <lane id=":0/1_3_0" index="0" speed="13.90" length="5.00" shape="4.75,51.65 3.39,51.84 2.43,52.42 1.84,53.39 1.65,54.75"/>
    </edge>
    <edge id=":0/1_4" function="internal">
        <lane id=":0/1_4_0" index="0" speed="13.90" length="10.32" shape="4.75,51.65 1.95,51.25 -0.05,50.05 -1.25,48.05 -1.65,45.25"/>
    </edge>
    <edge id=":0/1_5" function="internal">
        <lane id=":0/1_5_0" index="0" speed="13.90" length="4.82" shape="4.75,51.65 3.51,50.82 3.10,50.00 3.51,49.17 4.75,48.35"/>
    </edge>
    <edge id=":0/1_6" function="internal">
        <lane id=":0/1_6_0" index="0" speed="13.90" length="5.00" shape="1.65,45.25 1.84,46.61 2.42,47.58 3.39,48.16 4.75,48.35"/>
    </edge>
    <edge id=":0/1_7" function="internal">
        <lane id=":0/1_7_0" index="0" speed="13.90" length="9.50" shape="1.65,45.25 1.65,54.75"/>
    </edge>
    <edge id=":0/1_8" function="internal">
        <lane id=":0/1_8_0" index="0" speed="13.90" length="2.41" shape="1.65,45.25 0.83,46.49 0.00,46.90"/>
    </edge>
    <edge id=":0/1_11" function="internal">
        <lane id=":0/1_11_0" index="0" speed="13.90" length="2.41" shape="0.00,46.90 -0.83,46.49 -1.65,45.25"/>
    </edge>
    <edge id=":0/10_0" function="internal">
        <lane id=":0/10_0_0" index="0" speed="13.90" length="9.50" shape="-1.65,504.75 -1.65,495.25"/>
    </edge>
    <edge id=":0/10_1" function="internal">
        <lane id=":0/10_1_0" index="0" speed="13.90" length="5.28" shape="-1.65,504.75 -1.25,501.95 -0.05,499.95 0.05,499.89"/>
    </edge>
    <edge id=":0/10_2" function="internal">
        <lane id=":0/10_2_0" index="0" speed="13.90" length="2.41" shape="-1.65,504.75 -0.83,503.51 0.00,503.10"/>
    </edge>
    <edge id=":0/10_9" function="internal">
        <lane id=":0/10_9_0" index="0" speed="13.90" length="5.04" shape="0.05,499.89 1.95,498.75 4.75,498.35"/>
    </edge>
    <edge id=":0/10_10" function="internal">
        <lane id=":0/10_10_0" index="0" speed="13.90" length="2.41" shape="0.00,503.10 0.83,503.51 1.65,504.75"/>
    </edge>
    <edge id=":0/10_3" function="internal">
        <lane id=":0/10_3_0" index="0" speed="13.90" length="5.00" shape="4.75,501.65 3.39,501.84 2.43,502.42 1.84,503.39 1.65,504.75"/>
    </edge>
    <edge id=":0/10_4" function="internal">
        <lane id=":0/10_4_0" index="0" speed="13.90" length="10.32" shape="4.75,501.65 1.95,501.25 -0.05,500.05 -1.25,498.05 -1.65,495.25"/>
    </edge>
    <edge id=":0/10_5" function="internal">
        <lane id=":0/10_5_0" index="0" speed="13.90" length="4.82" shape="4.75,501.65 3.51,500.82 3.10,500.00 3.51,499.18 4.75,498.35"/>
    </edge>
    <edge id=":0/10_6" function="internal">
        <lane id=":0/10_6_0" index="0" speed="13.90" length="5.00" shape="1.65,495.25 1.84,496.61 2.42,497.58 3.39,498.16 4.75,498.35"/>
    </edge>
    <edge id=":0/10_7" function="internal">
        <lane id=":0/10_7_0" index="0" speed="13.90" length="9.50" shape="1.65,495.25 1.65,504.75"/>
    </edge>
    <edge id=":0/10_8" function="internal">
        <lane id=":0/10_8_0" index="0" speed="13.90" length="2.41" shape="1.65,495.25 0.83,496.49 0.00,496.90"/>
    </edge>
    <edge id=":0/10_11" function="internal">
        <lane id=":0/10_11_0" index="0" speed="13.90" length="2.41" shape="0.00,496.90 -0.83,496.49 -1.65,495.25"/>
    </edge>
    <edge id=":0/11_0" function="internal">
        <lane id=":0/11_0_0" index="0" speed="13.90" length="9.50" shape="-1.65,554.75 -1.65,545.25"/>
    </edge>
    <edge id=":0/11_1" function="internal">
        <lane id=":0/11_1_0" index="0" speed="13.90" length="5.28" shape="-1.65,554.75 -1.25,551.95 -0.05,549.95 0.05,549.89"/>
    </edge>
    <edge id=":0/11_2" function="internal">
        <lane id=":0/11_2_0" index="0" speed="13.90" length="2.41" shape="-1.65,554.75 -0.83,553.51 0.00,553.10"/>
    </edge>
    <edge id=":0/11_9" function="internal">
        <lane id=":0/11_9_0" index="0" speed="13.90" length="5.04" shape="0.05,549.89 1.95,548.75 4.75,548.35"/>
    </edge>
    <edge id=":0/11_10" function="internal">
        <lane id=":0/11_10_0" index="0" speed="13.90" length="2.41" shape="0.00,553.10 0.83,553.51 1.65,554.75"/>
    </edge>
    <edge id=":0/11_3" function="internal">
        <lane id=":0/11_3_0" index="0" speed="13.90" length="5.00" shape="4.75,551.65 3.39,551.84 2.43,552.42 1.84,553.39 1.65,554.75"/>
    </edge>
    <edge id=":0/11_4" function="internal">
        <lane id=":0/11_4_0" index="0" speed="13.90" length="10.32" shape="4.75,551.65 1.95,551.25 -0.05,550.05 -1.25,548.05 -1.65,545.25"/>
    </edge>
    <edge id=":0/11_5" function="internal">
        <lane id=":0/11_5_0" index="0" speed="13.90" length="4.82" shape="4.75,551.65 3.51,550.82 3.10,550.00 3.51,549.18 4.75,548.35"/>
    </edge>
    <edge id=":0/11_6" function="internal">
        <lane id=":0/11_6_0" index="0" speed="13.90" length="5.00" shape="1.65,545.25 1.84,546.61 2.42,547.58 3.39,548.16 4.75,548.35"/>
    </edge>
    <edge id=":0/11_7" function="internal">
        <lane id=":0/11_7_0" index="0" speed="13.90" length="9.50" shape="1.65,545.25 1.65,554.75"/>
    </edge>
    <edge id=":0/11_8" function="internal">
        <lane id=":0/11_8_0" index="0" speed="13.90" length="2.41" shape="1.65,545.25 0.83,546.49 0.00,546.90"/>
    </edge>
    <edge id=":0/11_11" function="internal">
        <lane id=":0/11_11_0" index="0" speed="13.90" length="2.41" shape="0.00,546.90 -0.83,546.49 -1.65,545.25"/>
    </edge>
    <edge id=":0/12_0" function="internal">
        <lane id=":0/12_0_0" index="0" speed="13.90" length="9.50" shape="-1.65,604.75 -1.65,595.25"/>
    </edge>
    <edge id=":0/12_1" function="internal">
        <lane id=":0/12_1_0" index="0" speed="13.90" length="5.28" shape="-1.65,604.75 -1.25,601.95 -0.05,599.95 0.05,599.89"/>
    </edge>
    <edge id=":0/12_2" function="internal">
        <lane id=":0/12_2_0" index="0" speed="13.90" length="2.41" shape="-1.65,604.75 -0.83,603.51 0.00,603.10"/>
    </edge>
    <edge id=":0/12_9" function="internal">
        <lane id=":0/12_9_0" index="0" speed="13.90" length="5.04" shape="0.05,599.89 1.95,598.75 4.75,598.35"/>
    </edge>
    <edge id=":0/12_10" function="internal">
        <lane id=":0/12_10_0" index="0" speed="13.90" length="2.41" shape="0.00,603.10 0.83,603.51 1.65,604.75"/>
    </edge>
    <edge id=":0/12_3" function="internal">
        <lane id=":0/12_3_0" index="0" speed="13.90" length="5.00" shape="4.75,601.65 3.39,601.84 2.43,602.42 1.84,603.39 1.65,604.75"/>
    </edge>
    <edge id=":0/12_4" function="internal">
        <lane id=":0/12_4_0" index="0" speed="13.90" length="10.32" shape="4.75,601.65 1.95,601.25 -0.05,600.05 -1.25,598.05 -1.65,595.25"/>
    </edge>
    <edge id=":0/12_5" function="internal">
        <lane id=":0/12_5_0" index="0" speed="13.90" length="4.82" shape="4.75,601.65 3.51,600.82 3.10,600.00 3.51,599.17 4.75,598.35"/>
    </edge>
    <edge id=":0/12_6" function="internal">
        <lane id=":0/12_6_0" index="0" speed="13.90" length="5.00" shape="1.65,595.25 1.84,596.61 2.42,597.58 3.39,598.16 4.75,598.35"/>
    </edge>
    <edge id=":0/12_7" function="internal">
        <lane id=":0/12_7_0" index="0" speed="13.90" length="9.50" shape="1.65,595.25 1.65,604.75"/>
    </edge>
    <edge id=":0/12_8" function="internal">
        <lane id=":0/12_8_0" index="0" speed="13.90" length="2.41" shape="1.65,595.25 0.83,596.49 0.00,596.90"/>
    </edge>
    <edge id=":0/12_11" function="internal">
        <lane id=":0/12_11_0" index="0" speed="13.90" length="2.41" shape="0.00,596.90 -0.83,596.49 -1.65,595.25"/>
    </edge>
    <edge id=":0/13_0" function="internal">
        <lane id=":0/13_0_0" index="0" speed="13.90" length="9.50" shape="-1.65,654.75 -1.65,645.25"/>
    </edge>
    <edge id=":0/13_1" function="internal">
        <lane id=":0/13_1_0" index="0" speed="13.90" length="5.28" shape="-1.65,654.75 -1.25,651.95 -0.05,649.95 0.05,649.89"/>
    </edge>
    <edge id=":0/13_2" function="internal">
        <lane id=":0/13_2_0" index="0" speed="13.90" length="2.41" shape="-1.65,654.75 -0.83,653.51 0.00,653.10"/>
    </edge>
    <edge id=":0/13_9" function="internal">
        <lane id=":0/13_9_0" index="0" speed="13.90" length="5.04" shape="0.05,649.89 1.95,648.75 4.75,648.35"/>
    </edge>
    <edge id=":0/13_10" function="internal">
        <lane id=":0/13_10_0" index="0" speed="13.90" length="2.41" shape="0.00,653.10 0.83,653.51 1.65,654.75"/>
    </edge>
    <edge id=":0/13_3" function="internal">
        <lane id=":0/13_3_0" index="0" speed="13.90" length="5.00" shape="4.75,651.65 3.39,651.84 2.43,652.42 1.84,653.39 1.65,654.75"/>
    </edge>
    <edge id=":0/13_4" function="internal">
        <lane id=":0/13_4_0" index="0" speed="13.90" length="10.32" shape="4.75,651.65 1.95,651.25 -0.05,650.05 -1.25,648.05 -1.65,645.25"/>
    </edge>
    <edge id=":0/13_5" function="internal">
        <lane id=":0/13_5_0" index="0" speed="13.90" length="4.82" shape="4.75,651.65 3.51,650.82 3.10,650.00 3.51,649.17 4.75,648.35"/>
    </edge>
    <edge id=":0/13_6" function="internal">
        <lane id=":0/13_6_0" index="0" speed="13.90" length="5.00" shape="1.65,645.25 1.84,646.61 2.42,647.58 3.39,648.16 4.75,648.35"/>
    </edge>
    <edge id=":0/13_7" function="internal">
        <lane id=":0/13_7_0" index="0" speed="13.90" length="9.50" shape="1.65,645.25 1.65,654.75"/>
    </edge>
    <edge id=":0/13_8" function="internal">
        <lane id=":0/13_8_0" index="0" speed="13.90" length="2.41" shape="1.65,645.25 0.83,646.49 0.00,646.90"/>
    </edge>
    <edge id=":0/13_11" function="internal">
        <lane id=":0/13_11_0" index="0" speed="13.90" length="2.41" shape="0.00,646.90 -0.83,646.49 -1.65,645.25"/>
    </edge>
    <edge id=":0/14_0" function="internal">
        <lane id=":0/14_0_0" index="0" speed="13.90" length="9.50" shape="-1.65,704.75 -1.65,695.25"/>
    </edge>
    <edge id=":0/14_1" function="internal">
        <lane id=":0/14_1_0" index="0" speed="13.90" length="5.28" shape="-1.65,704.75 -1.25,701.95 -0.05,699.95 0.05,699.89"/>
    </edge>
    <edge id=":0/14_2" function="internal">
        <lane id=":0/14_2_0" index="0" speed="13.90" length="2.41" shape="-1.65,704.75 -0.83,703.51 0.00,703.10"/>
    </edge>
    <edge id=":0/14_9" function="internal">
        <lane id=":0/14_9_0" index="0" speed="13.90" length="5.04" shape="0.05,699.89 1.95,698.75 4.75,698.35"/>
    </edge>
    <edge id=":0/14_10" function="internal">
        <lane id=":0/14_10_0" index="0" speed="13.90" length="2.41" shape="0.00,703.10 0.83,703.51 1.65,704.75"/>
    </edge>
    <edge id=":0/14_3" function="internal">
        <lane id=":0/14_3_0" index="0" speed="13.90" length="5.00" shape="4.75,701.65 3.39,701.84 2.43,702.42 1.84,703.39 1.65,704.75"/>
    </edge>
    <edge id=":0/14_4" function="internal">
        <lane id=":0/14_4_0" index="0" speed="13.90" length="10.32" shape="4.75,701.65 1.95,701.25 -0.05,700.05 -1.25,698.05 -1.65,695.25"/>
    </edge>
    <edge id=":0/14_5" function="internal">
        <lane id=":0/14_5_0" index="0" speed="13.90" length="4.82" shape="4.75,701.65 3.51,700.82 3.10,700.00 3.51,699.17 4.75,698.35"/>
    </edge>
    <edge id=":0/14_6" function="internal">
        <lane id=":0/14_6_0" index="0" speed="13.90" length="5.00" shape="1.65,695.25 1.84,696.61 2.42,697.57 3.39,698.16 4.75,698.35"/>
    </edge>
    <edge id=":0/14_7" function="internal">
        <lane id=":0/14_7_0" index="0" speed="13.90" length="9.50" shape="1.65,695.25 1.65,704.75"/>
    </edge>
    <edge id=":0/14_8" function="internal">
        <lane id=":0/14_8_0" index="0" speed="13.90" length="2.41" shape="1.65,695.25 0.83,696.49 0.00,696.90"/>
    </edge>
    <edge id=":0/14_11" function="internal">
        <lane id=":0/14_11_0" index="0" speed="13.90" length="2.41" shape="0.00,696.90 -0.83,696.49 -1.65,695.25"/>
    </edge>
    <edge id=":0/15_0" function="internal">
        <lane id=":0/15_0_0" index="0" speed="13.90" length="9.50" shape="-1.65,754.75 -1.65,745.25"/>
    </edge>
    <edge id=":0/15_1" function="internal">
        <lane id=":0/15_1_0" index="0" speed="13.90" length="5.28" shape="-1.65,754.75 -1.25,751.95 -0.05,749.95 0.05,749.89"/>
    </edge>
    <edge id=":0/15_2" function="internal">
        <lane id=":0/15_2_0" index="0" speed="13.90" length="2.41" shape="-1.65,754.75 -0.83,753.51 0.00,753.10"/>
    </edge>
    <edge id=":0/15_9" function="internal">
        <lane id=":0/15_9_0" index="0" speed="13.90" length="5.04" shape="0.05,749.89 1.95,748.75 4.75,748.35"/>
    </edge>
    <edge id=":0/15_10" function="internal">
        <lane id=":0/15_10_0" index="0" speed="13.90" length="2.41" shape="0.00,753.10 0.83,753.51 1.65,754.75"/>
    </edge>
    <edge id=":0/15_3" function="internal">
        <lane id=":0/15_3_0" index="0" speed="13.90" length="5.00" shape="4.75,751.65 3.39,751.84 2.43,752.42 1.84,753.39 1.65,754.75"/>
    </edge>
    <edge id=":0/15_4" function="internal">
        <lane id=":0/15_4_0" index="0" speed="13.90" length="10.32" shape="4.75,751.65 1.95,751.25 -0.05,750.05 -1.25,748.05 -1.65,745.25"/>
    </edge>
    <edge id=":0/15_5" function="internal">
        <lane id=":0/15_5_0" index="0" speed="13.90" length="4.82" shape="4.75,751.65 3.51,750.82 3.10,750.00 3.51,749.17 4.75,748.35"/>
    </edge>
    <edge id=":0/15_6" function="internal">
        <lane id=":0/15_6_0" index="0" speed="13.90" length="5.00" shape="1.65,745.25 1.84,746.61 2.42,747.57 3.39,748.16 4.75,748.35"/>
    </edge>
    <edge id=":0/15_7" function="internal">
        <lane id=":0/15_7_0" index="0" speed="13.90" length="9.50" shape="1.65,745.25 1.65,754.75"/>
    </edge>
    <edge id=":0/15_8" function="internal">
        <lane id=":0/15_8_0" index="0" speed="13.90" length="2.41" shape="1.65,745.25 0.83,746.49 0.00,746.90"/>
    </edge>
    <edge id=":0/15_11" function="internal">
        <lane id=":0/15_11_0" index="0" speed="13.90" length="2.41" shape="0.00,746.90 -0.83,746.49 -1.65,745.25"/>
    </edge>
    <edge id=":0/16_0" function="internal">
        <lane id=":0/16_0_0" index="0" speed="13.90" length="9.50" shape="-1.65,804.75 -1.65,795.25"/>
    </edge>
    <edge id=":0/16_1" function="internal">
        <lane id=":0/16_1_0" index="0" speed="13.90" length="5.28" shape="-1.65,804.75 -1.25,801.95 -0.05,799.95 0.05,799.89"/>
    </edge>
    <edge id=":0/16_2" function="internal">
        <lane id=":0/16_2_0" index="0" speed="13.90" length="2.41" shape="-1.65,804.75 -0.83,803.51 0.00,803.10"/>
    </edge>
    <edge id=":0/16_9" function="internal">
        <lane id=":0/16_9_0" index="0" speed="13.90" length="5.04" shape="0.05,799.89 1.95,798.75 4.75,798.35"/>
    </edge>
    <edge id=":0/16_10" function="internal">
        <lane id=":0/16_10_0" index="0" speed="13.90" length="2.41" shape="0.00,803.10 0.83,803.51 1.65,804.75"/>
    </edge>
    <edge id=":0/16_3" function="internal">
        <lane id=":0/16_3_0" index="0" speed="13.90" length="5.00" shape="4.75,801.65 3.39,801.84 2.43,802.42 1.84,803.39 1.65,804.75"/>
    </edge>
    <edge id=":0/16_4" function="internal">
        <lane id=":0/16_4_0" index="0" speed="13.90" length="10.32" shape="4.75,801.65 1.95,801.25 -0.05,800.05 -1.25,798.05 -1.65,795.25"/>
    </edge>
    <edge id=":0/16_5" function="internal">
        <lane id=":0/16_5_0" index="0" speed="13.90" length="4.82" shape="4.75,801.65 3.51,800.82 3.10,800.00 3.51,799.17 4.75,798.35"/>
    </edge>
    <edge id=":0/16_6" function="internal">
        <lane id=":0/16_6_0" index="0" speed="13.90" length="5.00" shape="1.65,795.25 1.84,796.61 2.42,797.57 3.39,798.16 4.75,798.35"/>
    </edge>
    <edge id=":0/16_7" function="internal">
        <lane id=":0/16_7_0" index="0" speed="13.90" length="9.50" shape="1.65,795.25 1.65,804.75"/>
    </edge>
    <edge id=":0/16_8" function="internal">
        <lane id=":0/16_8_0" index="0" speed="13.90" length="2.41" shape="1.65,795.25 0.83,796.49 0.00,796.90"/>
    </edge>
    <edge id=":0/16_11" function="internal">
        <lane id=":0/16_11_0" index="0" speed="13.90" length="2.41" shape="0.00,796.90 -0.83,796.49 -1.65,795.25"/>
    </edge>
    <edge id=":0/17_0" function="internal">
        <lane id=":0/17_0_0" index="0" speed="13.90" length="9.50" shape="-1.65,854.75 -1.65,845.25"/>
    </edge>
    <edge id=":0/17_1" function="internal">
        <lane id=":0/17_1_0" index="0" speed="13.90" length="5.28" shape="-1.65,854.75 -1.25,851.95 -0.05,849.95 0.05,849.89"/>
    </edge>
    <edge id=":0/17_2" function="internal">
        <lane id=":0/17_2_0" index="0" speed="13.90" length="2.41" shape="-1.65,854.75 -0.83,853.51 0.00,853.10"/>
    </edge>
    <edge id=":0/17_9" function="internal">
        <lane id=":0/17_9_0" index="0" speed="13.90" length="5.04" shape="0.05,849.89 1.95,848.75 4.75,848.35"/>
    </edge>
    <edge id=":0/17_10" function="internal">
        <lane id=":0/17_10_0" index="0" speed="13.90" length="2.41" shape="0.00,853.10 0.83,853.51 1.65,854.75"/>
    </edge>
    <edge id=":0/17_3" function="internal">
        <lane id=":0/17_3_0" index="0" speed="13.90" length="5.00" shape="4.75,851.65 3.39,851.84 2.43,852.42 1.84,853.39 1.65,854.75"/>
    </edge>
    <edge id=":0/17_4" function="internal">
        <lane id=":0/17_4_0" index="0" speed="13.90" length="10.32" shape="4.75,851.65 1.95,851.25 -0.05,850.05 -1.25,848.05 -1.65,845.25"/>
    </edge>
    <edge id=":0/17_5" function="internal">
        <lane id=":0/17_5_0" index="0" speed="13.90" length="4.82" shape="4.75,851.65 3.51,850.82 3.10,850.00 3.51,849.17 4.75,848.35"/>
    </edge>
    <edge id=":0/17_6" function="internal">
        <lane id=":0/17_6_0" index="0" speed="13.90" length="5.00" shape="1.65,845.25 1.84,846.61 2.42,847.57 3.39,848.16 4.75,848.35"/>
    </edge>
    <edge id=":0/17_7" function="internal">
        <lane id=":0/17_7_0" index="0" speed="13.90" length="9.50" shape="1.65,845.25 1.65,854.75"/>
    </edge>
    <edge id=":0/17_8" function="internal">
        <lane id=":0/17_8_0" index="0" speed="13.90" length="2.41" shape="1.65,845.25 0.83,846.49 0.00,846.90"/>
    </edge>
    <edge id=":0/17_11" function="internal">
        <lane id=":0/17_11_0" index="0" speed="13.90" length="2.41" shape="0.00,846.90 -0.83,846.49 -1.65,845.25"/>
    </edge>
    <edge id=":0/18_0" function="internal">
        <lane id=":0/18_0_0" index="0" speed="13.90" length="9.50" shape="-1.65,904.75 -1.65,895.25"/>
    </edge>
    <edge id=":0/18_1" function="internal">
        <lane id=":0/18_1_0" index="0" speed="13.90" length="5.28" shape="-1.65,904.75 -1.25,901.95 -0.05,899.95 0.05,899.89"/>
    </edge>
    <edge id=":0/18_2" function="internal">
        <lane id=":0/18_2_0" index="0" speed="13.90" length="2.41" shape="-1.65,904.75 -0.83,903.51 0.00,903.10"/>
    </edge>
    <edge id=":0/18_9" function="internal">
        <lane id=":0/18_9_0" index="0" speed="13.90" length="5.04" shape="0.05,899.89 1.95,898.75 4.75,898.35"/>
    </edge>
    <edge id=":0/18_10" function="internal">
        <lane id=":0/18_10_0" index="0" speed="13.90" length="2.41" shape="0.00,903.10 0.83,903.51 1.65,904.75"/>
    </edge>
    <edge id=":0/18_3" function="internal">
        <lane id=":0/18_3_0" index="0" speed="13.90" length="5.00" shape="4.75,901.65 3.39,901.84 2.43,902.42 1.84,903.39 1.65,904.75"/>
    </edge>
    <edge id=":0/18_4" function="internal">
        <lane id=":0/18_4_0" index="0" speed="13.90" length="10.32" shape="4.75,901.65 1.95,901.25 -0.05,900.05 -1.25,898.05 -1.65,895.25"/>
    </edge>
    <edge id=":0/18_5" function="internal">
        <lane id=":0/18_5_0" index="0" speed="13.90" length="4.82" shape="4.75,901.65 3.51,900.82 3.10,900.00 3.51,899.17 4.75,898.35"/>
    </edge>
    <edge id=":0/18_6" function="internal">
        <lane id=":0/18_6_0" index="0" speed="13.90" length="5.00" shape="1.65,895.25 1.84,896.61 2.42,897.57 3.39,898.16 4.75,898.35"/>
    </edge>
    <edge id=":0/18_7" function="internal">
        <lane id=":0/18_7_0" index="0" speed="13.90" length="9.50" shape="1.65,895.25 1.65,904.75"/>
    </edge>
    <edge id=":0/18_8" function="internal">
        <lane id=":0/18_8_0" index="0" speed="13.90" length="2.41" shape="1.65,895.25 0.83,896.49 0.00,896.90"/>
    </edge>
    <edge id=":0/18_11" function="internal">
        <lane id=":0/18_11_0" index="0" speed="13.90" length="2.41" shape="0.00,896.90 -0.83,896.49 -1.65,895.25"/>
    </edge>
    <edge id=":0/19_0" function="internal">
        <lane id=":0/19_0_0" index="0" speed="13.90" length="9.50" shape="-1.65,954.75 -1.65,945.25"/>
    </edge>
    <edge id=":0/19_1" function="internal">
        <lane id=":0/19_1_0" index="0" speed="13.90" length="5.28" shape="-1.65,954.75 -1.25,951.95 -0.05,949.95 0.05,949.89"/>
    </edge>
    <edge id=":0/19_2" function="internal">
        <lane id=":0/19_2_0" index="0" speed="13.90" length="2.41" shape="-1.65,954.75 -0.83,953.51 0.00,953.10"/>
    </edge>
    <edge id=":0/19_9" function="internal">
        <lane id=":0/19_9_0" index="0" speed="13.90" length="5.04" shape="0.05,949.89 1.95,948.75 4.75,948.35"/>
    </edge>
    <edge id=":0/19_10" function="internal">
        <lane id=":0/19_10_0" index="0" speed="13.90" length="2.41" shape="0.00,953.10 0.83,953.51 1.65,954.75"/>
    </edge>
    <edge id=":0/19_3" function="internal">
        <lane id=":0/19_3_0" index="0" speed="13.90" length="5.00" shape="4.75,951.65 3.39,951.84 2.43,952.42 1.84,953.39 1.65,954.75"/>
    </edge>
    <edge id=":0/19_4" function="internal">
        <lane id=":0/19_4_0" index="0" speed="13.90" length="10.32" shape="4.75,951.65 1.95,951.25 -0.05,950.05 -1.25,948.05 -1.65,945.25"/>
    </edge>
    <edge id=":0/19_5" function="internal">
        <lane id=":0/19_5_0" index="0" speed="13.90" length="4.82" shape="4.75,951.65 3.51,950.83 3.10,950.00 3.51,949.17 4.75,948.35"/>
    </edge>
    <edge id=":0/19_6" function="internal">
        <lane id=":0/19_6_0" index="0" speed="13.90" length="5.00" shape="1.65,945.25 1.84,946.61 2.42,947.57 3.39,948.16 4.75,948.35"/>
    </edge>
    <edge id=":0/19_7" function="internal">
        <lane id=":0/19_7_0" index="0" speed="13.90" length="9.50" shape="1.65,945.25 1.65,954.75"/>
    </edge>
    <edge id=":0/19_8" function="internal">
        <lane id=":0/19_8_0" index="0" speed="13.90" length="2.41" shape="1.65,945.25 0.83,946.49 0.00,946.90"/>
    </edge>
    <edge id=":0/19_11" function="internal">
        <lane id=":0/19_11_0" index="0" speed="13.90" length="2.41" shape="0.00,946.90 -0.83,946.49 -1.65,945.25"/>
    </edge>
    <edge id=":0/2_0" function="internal">
        <lane id=":0/2_0_0" index="0" speed="13.90" length="9.50" shape="-1.65,104.75 -1.65,95.25"/>
    </edge>
    <edge id=":0/2_1" function="internal">
        <lane id=":0/2_1_0" index="0" speed="13.90" length="5.28" shape="-1.65,104.75 -1.25,101.95 -0.05,99.95 0.05,99.89"/>
    </edge>
    <edge id=":0/2_2" function="internal">
        <lane id=":0/2_2_0" index="0" speed="13.90" length="2.41" shape="-1.65,104.75 -0.83,103.51 0.00,103.10"/>
    </edge>
    <edge id=":0/2_9" function="internal">
        <lane id=":0/2_9_0" index="0" speed="13.90" length="5.04" shape="0.05,99.89 1.95,98.75 4.75,98.35"/>
    </edge>
    <edge id=":0/2_10" function="internal">
        <lane id=":0/2_10_0" index="0" speed="13.90" length="2.41" shape="0.00,103.10 0.83,103.51 1.65,104.75"/>
    </edge>
    <edge id=":0/2_3" function="internal">
        <lane id=":0/2_3_0" index="0" speed="13.90" length="5.00" shape="4.75,101.65 3.39,101.84 2.43,102.43 1.84,103.39 1.65,104.75"/>
    </edge>
    <edge id=":0/2_4" function="internal">
        <lane id=":0/2_4_0" index="0" speed="13.90" length="10.32" shape="4.75,101.65 1.95,101.25 -0.05,100.05 -1.25,98.05 -1.65,95.25"/>
    </edge>
    <edge id=":0/2_5" function="internal">
        <lane id=":0/2_5_0" index="0" speed="13.90" length="4.82" shape="4.75,101.65 3.51,100.82 3.10,100.00 3.51,99.17 4.75,98.35"/>
    </edge>
    <edge id=":0/2_6" function="internal">
        <lane id=":0/2_6_0" index="0" speed="13.90" length="5.00" shape="1.65,95.25 1.84,96.61 2.42,97.57 3.39,98.16 4.75,98.35"/>
    </edge>
    <edge id=":0/2_7" function="internal">
        <lane id=":0/2_7_0" index="0" speed="13.90" length="9.50" shape="1.65,95.25 1.65,104.75"/>
    </edge>
    <edge id=":0/2_8" function="internal">
        <lane id=":0/2_8_0" index="0" speed="13.90" length="2.41" shape="1.65,95.25 0.83,96.49 0.00,96.90"/>
    </edge>
    <edge id=":0/2_11" function="internal">
        <lane id=":0/2_11_0" index="0" speed="13.90" length="2.41" shape="0.00,96.90 -0.83,96.49 -1.65,95.25"/>
    </edge>
    <edge id=":0/20_0" function="internal">
        <lane id=":0/20_0_0" index="0" speed="13.90" length="9.50" shape="-1.65,1004.75 -1.65,995.25"/>
    </edge>
    <edge id=":0/20_1" function="internal">
        <lane id=":0/20_1_0" index="0" speed="13.90" length="5.28" shape="-1.65,1004.75 -1.25,1001.95 -0.05,999.95 0.05,999.89"/>
    </edge>
    <edge id=":0/20_2" function="internal">
        <lane id=":0/20_2_0" index="0" speed="13.90" length="2.41" shape="-1.65,1004.75 -0.83,1003.51 0.00,1003.10"/>
    </edge>
    <edge id=":0/20_9" function="internal">
        <lane id=":0/20_9_0" index="0" speed="13.90" length="5.04" shape="0.05,999.89 1.95,998.75 4.75,998.35"/>
    </edge>
    <edge id=":0/20_10" function="internal">
        <lane id=":0/20_10_0" index="0" speed="13.90" length="2.41" shape="0.00,1003.10 0.83,1003.51 1.65,1004.75"/>
    </edge>
    <edge id=":0/20_3" function="internal">
        <lane id=":0/20_3_0" index="0" speed="13.90" length="5.00" shape="4.75,1001.65 3.39,1001.84 2.43,1002.42 1.84,1003.39 1.65,1004.75"/>
    </edge>
    <edge id=":0/20_4" function="internal">
        <lane id=":0/20_4_0" index="0" speed="13.90" length="10.32" shape="4.75,1001.65 1.95,1001.25 -0.05,1000.05 -1.25,998.05 -1.65,995.25"/>
    </edge>
    <edge id=":0/20_5" function="internal">
        <lane id=":0/20_5_0" index="0" speed="13.90" length="4.82" shape="4.75,1001.65 3.51,1000.83 3.10,1000.00 3.51,999.17 4.75,998.35"/>
    </edge>
    <edge id=":0/20_6" function="internal">
        <lane id=":0/20_6_0" index="0" speed="13.90" length="5.00" shape="1.65,995.25 1.84,996.61 2.42,997.57 3.39,998.16 4.75,998.35"/>
    </edge>
    <edge id=":0/20_7" function="internal">
        <lane id=":0/20_7_0" index="0" speed="13.90" length="9.50" shape="1.65,995.25 1.65,1004.75"/>
    </edge>
    <edge id=":0/20_8" function="internal">
        <lane id=":0/20_8_0" index="0" speed="13.90" length="2.41" shape="1.65,995.25 0.83,996.49 0.00,996.90"/>
    </edge>
    <edge id=":0/20_11" function="internal">
        <lane id=":0/20_11_0" index="0" speed="13.90" length="2.41" shape="0.00,996.90 -0.83,996.49 -1.65,995.25"/>
    </edge>
    <edge id=":0/21_0" function="internal">
        <lane id=":0/21_0_0" index="0" speed="13.90" length="9.50" shape="-1.65,1054.75 -1.65,1045.25"/>
    </edge>
    <edge id=":0/21_1" function="internal">
        <lane id=":0/21_1_0" index="0" speed="13.90" length="5.28" shape="-1.65,1054.75 -1.25,1051.95 -0.05,1049.95 0.05,1049.89"/>
    </edge>
    <edge id=":0/21_2" function="internal">